* NGSPICE file created from spi_adc.ext - technology: sky130A

* Black-box entry subcircuit for sky130_fd_sc_hd__tapvpwrvgnd_1 abstract view
.subckt sky130_fd_sc_hd__tapvpwrvgnd_1 VGND VPWR
.ends

* Black-box entry subcircuit for sky130_fd_sc_hd__o211a_1 abstract view
.subckt sky130_fd_sc_hd__o211a_1 A1 A2 B1 C1 VGND VNB VPB VPWR X
.ends

* Black-box entry subcircuit for sky130_fd_sc_hd__fill_1 abstract view
.subckt sky130_fd_sc_hd__fill_1 VGND VNB VPB VPWR
.ends

* Black-box entry subcircuit for sky130_fd_sc_hd__nor2_1 abstract view
.subckt sky130_fd_sc_hd__nor2_1 A B VGND VNB VPB VPWR Y
.ends

* Black-box entry subcircuit for sky130_fd_sc_hd__a21o_1 abstract view
.subckt sky130_fd_sc_hd__a21o_1 A1 A2 B1 VGND VNB VPB VPWR X
.ends

* Black-box entry subcircuit for sky130_fd_sc_hd__inv_2 abstract view
.subckt sky130_fd_sc_hd__inv_2 A VGND VNB VPB VPWR Y
.ends

* Black-box entry subcircuit for sky130_fd_sc_hd__decap_3 abstract view
.subckt sky130_fd_sc_hd__decap_3 VGND VNB VPB VPWR
.ends

* Black-box entry subcircuit for sky130_fd_sc_hd__a22o_1 abstract view
.subckt sky130_fd_sc_hd__a22o_1 A1 A2 B1 B2 VGND VNB VPB VPWR X
.ends

* Black-box entry subcircuit for sky130_ef_sc_hd__decap_12 abstract view
.subckt sky130_ef_sc_hd__decap_12 VPWR VGND VPB VNB
.ends

* Black-box entry subcircuit for sky130_fd_sc_hd__decap_4 abstract view
.subckt sky130_fd_sc_hd__decap_4 VGND VNB VPB VPWR
.ends

* Black-box entry subcircuit for sky130_fd_sc_hd__o21a_1 abstract view
.subckt sky130_fd_sc_hd__o21a_1 A1 A2 B1 VGND VNB VPB VPWR X
.ends

* Black-box entry subcircuit for sky130_fd_sc_hd__dfrtp_1 abstract view
.subckt sky130_fd_sc_hd__dfrtp_1 CLK D RESET_B VGND VNB VPB VPWR Q
.ends

* Black-box entry subcircuit for sky130_fd_sc_hd__decap_6 abstract view
.subckt sky130_fd_sc_hd__decap_6 VGND VNB VPB VPWR
.ends

* Black-box entry subcircuit for sky130_fd_sc_hd__dlygate4sd3_1 abstract view
.subckt sky130_fd_sc_hd__dlygate4sd3_1 A VGND VNB VPB VPWR X
.ends

* Black-box entry subcircuit for sky130_fd_sc_hd__decap_8 abstract view
.subckt sky130_fd_sc_hd__decap_8 VGND VNB VPB VPWR
.ends

* Black-box entry subcircuit for sky130_fd_sc_hd__fill_2 abstract view
.subckt sky130_fd_sc_hd__fill_2 VGND VNB VPB VPWR
.ends

* Black-box entry subcircuit for sky130_fd_sc_hd__buf_2 abstract view
.subckt sky130_fd_sc_hd__buf_2 A VGND VNB VPB VPWR X
.ends

* Black-box entry subcircuit for sky130_fd_sc_hd__or3_1 abstract view
.subckt sky130_fd_sc_hd__or3_1 A B C VGND VNB VPB VPWR X
.ends

* Black-box entry subcircuit for sky130_fd_sc_hd__or3b_2 abstract view
.subckt sky130_fd_sc_hd__or3b_2 A B C_N VGND VNB VPB VPWR X
.ends

* Black-box entry subcircuit for sky130_fd_sc_hd__a21oi_1 abstract view
.subckt sky130_fd_sc_hd__a21oi_1 A1 A2 B1 VGND VNB VPB VPWR Y
.ends

* Black-box entry subcircuit for sky130_fd_sc_hd__clkbuf_16 abstract view
.subckt sky130_fd_sc_hd__clkbuf_16 A VGND VNB VPB VPWR X
.ends

* Black-box entry subcircuit for sky130_fd_sc_hd__nor3_1 abstract view
.subckt sky130_fd_sc_hd__nor3_1 A B C VGND VNB VPB VPWR Y
.ends

* Black-box entry subcircuit for sky130_fd_sc_hd__or4b_1 abstract view
.subckt sky130_fd_sc_hd__or4b_1 A B C D_N VGND VNB VPB VPWR X
.ends

* Black-box entry subcircuit for sky130_fd_sc_hd__or4_1 abstract view
.subckt sky130_fd_sc_hd__or4_1 A B C D VGND VNB VPB VPWR X
.ends

* Black-box entry subcircuit for sky130_fd_sc_hd__a32o_1 abstract view
.subckt sky130_fd_sc_hd__a32o_1 A1 A2 A3 B1 B2 VGND VNB VPB VPWR X
.ends

* Black-box entry subcircuit for sky130_fd_sc_hd__mux2_1 abstract view
.subckt sky130_fd_sc_hd__mux2_1 A0 A1 S VGND VNB VPB VPWR X
.ends

* Black-box entry subcircuit for sky130_fd_sc_hd__and3_1 abstract view
.subckt sky130_fd_sc_hd__and3_1 A B C VGND VNB VPB VPWR X
.ends

* Black-box entry subcircuit for sky130_fd_sc_hd__clkinv_2 abstract view
.subckt sky130_fd_sc_hd__clkinv_2 A VGND VNB VPB VPWR Y
.ends

* Black-box entry subcircuit for sky130_fd_sc_hd__nand2_1 abstract view
.subckt sky130_fd_sc_hd__nand2_1 A B VGND VNB VPB VPWR Y
.ends

* Black-box entry subcircuit for sky130_fd_sc_hd__clkinvlp_4 abstract view
.subckt sky130_fd_sc_hd__clkinvlp_4 A VGND VNB VPB VPWR Y
.ends

* Black-box entry subcircuit for sky130_fd_sc_hd__or2_1 abstract view
.subckt sky130_fd_sc_hd__or2_1 A B VGND VNB VPB VPWR X
.ends

* Black-box entry subcircuit for sky130_fd_sc_hd__dfrtp_2 abstract view
.subckt sky130_fd_sc_hd__dfrtp_2 CLK D RESET_B VGND VNB VPB VPWR Q
.ends

* Black-box entry subcircuit for sky130_fd_sc_hd__o22a_1 abstract view
.subckt sky130_fd_sc_hd__o22a_1 A1 A2 B1 B2 VGND VNB VPB VPWR X
.ends

* Black-box entry subcircuit for sky130_fd_sc_hd__conb_1 abstract view
.subckt sky130_fd_sc_hd__conb_1 VGND VNB VPB VPWR HI LO
.ends

* Black-box entry subcircuit for sky130_fd_sc_hd__clkbuf_4 abstract view
.subckt sky130_fd_sc_hd__clkbuf_4 A VGND VNB VPB VPWR X
.ends

* Black-box entry subcircuit for sky130_fd_sc_hd__a21oi_2 abstract view
.subckt sky130_fd_sc_hd__a21oi_2 A1 A2 B1 VGND VNB VPB VPWR Y
.ends

* Black-box entry subcircuit for sky130_fd_sc_hd__clkinv_4 abstract view
.subckt sky130_fd_sc_hd__clkinv_4 A VGND VNB VPB VPWR Y
.ends

* Black-box entry subcircuit for sky130_fd_sc_hd__buf_1 abstract view
.subckt sky130_fd_sc_hd__buf_1 A VGND VNB VPB VPWR X
.ends

* Black-box entry subcircuit for sky130_fd_sc_hd__a22oi_1 abstract view
.subckt sky130_fd_sc_hd__a22oi_1 A1 A2 B1 B2 VGND VNB VPB VPWR Y
.ends

* Black-box entry subcircuit for sky130_fd_sc_hd__o2111ai_4 abstract view
.subckt sky130_fd_sc_hd__o2111ai_4 A1 A2 B1 C1 D1 VGND VNB VPB VPWR Y
.ends

* Black-box entry subcircuit for sky130_fd_sc_hd__clkbuf_2 abstract view
.subckt sky130_fd_sc_hd__clkbuf_2 A VGND VNB VPB VPWR X
.ends

* Black-box entry subcircuit for sky130_fd_sc_hd__and2b_1 abstract view
.subckt sky130_fd_sc_hd__and2b_1 A_N B VGND VNB VPB VPWR X
.ends

* Black-box entry subcircuit for sky130_fd_sc_hd__a22oi_2 abstract view
.subckt sky130_fd_sc_hd__a22oi_2 A1 A2 B1 B2 VGND VNB VPB VPWR Y
.ends

* Black-box entry subcircuit for sky130_fd_sc_hd__and2_1 abstract view
.subckt sky130_fd_sc_hd__and2_1 A B VGND VNB VPB VPWR X
.ends

* Black-box entry subcircuit for sky130_fd_sc_hd__bufinv_16 abstract view
.subckt sky130_fd_sc_hd__bufinv_16 A VGND VNB VPB VPWR Y
.ends

* Black-box entry subcircuit for sky130_fd_sc_hd__o21ba_1 abstract view
.subckt sky130_fd_sc_hd__o21ba_1 A1 A2 B1_N VGND VNB VPB VPWR X
.ends

* Black-box entry subcircuit for sky130_fd_sc_hd__and4_1 abstract view
.subckt sky130_fd_sc_hd__and4_1 A B C D VGND VNB VPB VPWR X
.ends

* Black-box entry subcircuit for sky130_fd_sc_hd__nand2b_1 abstract view
.subckt sky130_fd_sc_hd__nand2b_1 A_N B VGND VNB VPB VPWR Y
.ends

* Black-box entry subcircuit for sky130_fd_sc_hd__and4b_1 abstract view
.subckt sky130_fd_sc_hd__and4b_1 A_N B C D VGND VNB VPB VPWR X
.ends

* Black-box entry subcircuit for sky130_fd_sc_hd__and2_2 abstract view
.subckt sky130_fd_sc_hd__and2_2 A B VGND VNB VPB VPWR X
.ends

* Black-box entry subcircuit for sky130_fd_sc_hd__clkbuf_1 abstract view
.subckt sky130_fd_sc_hd__clkbuf_1 A VGND VNB VPB VPWR X
.ends

* Black-box entry subcircuit for sky130_fd_sc_hd__dlymetal6s2s_1 abstract view
.subckt sky130_fd_sc_hd__dlymetal6s2s_1 A VGND VNB VPB VPWR X
.ends

* Black-box entry subcircuit for sky130_fd_sc_hd__and3b_1 abstract view
.subckt sky130_fd_sc_hd__and3b_1 A_N B C VGND VNB VPB VPWR X
.ends

* Black-box entry subcircuit for sky130_fd_sc_hd__nand3_1 abstract view
.subckt sky130_fd_sc_hd__nand3_1 A B C VGND VNB VPB VPWR Y
.ends

* Black-box entry subcircuit for sky130_fd_sc_hd__a211o_1 abstract view
.subckt sky130_fd_sc_hd__a211o_1 A1 A2 B1 C1 VGND VNB VPB VPWR X
.ends

* Black-box entry subcircuit for sky130_fd_sc_hd__o31a_1 abstract view
.subckt sky130_fd_sc_hd__o31a_1 A1 A2 A3 B1 VGND VNB VPB VPWR X
.ends

* Black-box entry subcircuit for sky130_fd_sc_hd__xnor2_1 abstract view
.subckt sky130_fd_sc_hd__xnor2_1 A B VGND VNB VPB VPWR Y
.ends

* Black-box entry subcircuit for sky130_fd_sc_hd__ebufn_8 abstract view
.subckt sky130_fd_sc_hd__ebufn_8 A TE_B VGND VNB VPB VPWR Z
.ends

* Black-box entry subcircuit for sky130_fd_sc_hd__o21ai_1 abstract view
.subckt sky130_fd_sc_hd__o21ai_1 A1 A2 B1 VGND VNB VPB VPWR Y
.ends

* Black-box entry subcircuit for sky130_fd_sc_hd__nor3b_1 abstract view
.subckt sky130_fd_sc_hd__nor3b_1 A B C_N VGND VNB VPB VPWR Y
.ends

* Black-box entry subcircuit for sky130_fd_sc_hd__a31o_1 abstract view
.subckt sky130_fd_sc_hd__a31o_1 A1 A2 A3 B1 VGND VNB VPB VPWR X
.ends

* Black-box entry subcircuit for sky130_fd_sc_hd__dfstp_1 abstract view
.subckt sky130_fd_sc_hd__dfstp_1 CLK D SET_B VGND VNB VPB VPWR Q
.ends

* Black-box entry subcircuit for sky130_fd_sc_hd__a211oi_1 abstract view
.subckt sky130_fd_sc_hd__a211oi_1 A1 A2 B1 C1 VGND VNB VPB VPWR Y
.ends

* Black-box entry subcircuit for sky130_fd_sc_hd__dfrtp_4 abstract view
.subckt sky130_fd_sc_hd__dfrtp_4 CLK D RESET_B VGND VNB VPB VPWR Q
.ends

* Black-box entry subcircuit for sky130_fd_sc_hd__or3_2 abstract view
.subckt sky130_fd_sc_hd__or3_2 A B C VGND VNB VPB VPWR X
.ends

* Black-box entry subcircuit for sky130_fd_sc_hd__or4_2 abstract view
.subckt sky130_fd_sc_hd__or4_2 A B C D VGND VNB VPB VPWR X
.ends

* Black-box entry subcircuit for sky130_fd_sc_hd__nand2b_2 abstract view
.subckt sky130_fd_sc_hd__nand2b_2 A_N B VGND VNB VPB VPWR Y
.ends

* Black-box entry subcircuit for sky130_fd_sc_hd__a221o_1 abstract view
.subckt sky130_fd_sc_hd__a221o_1 A1 A2 B1 B2 C1 VGND VNB VPB VPWR X
.ends

* Black-box entry subcircuit for sky130_fd_sc_hd__nor2_4 abstract view
.subckt sky130_fd_sc_hd__nor2_4 A B VGND VNB VPB VPWR Y
.ends

.subckt spi_adc VGND VPWR adc_clk_out comparator cs dac[0] dac[10] dac[11] dac[1]
+ dac[2] dac[3] dac[4] dac[5] dac[6] dac[7] dac[8] dac[9] dac_rst irq miso mosi pwr_gate
+ reset_ sample_and_hold sck sys_clk vref_sel
XTAP_TAPCELL_ROW_9_126 VGND VPWR sky130_fd_sc_hd__tapvpwrvgnd_1
X_501_ u_controller.dac_reg\[1\] net35 _269_ net39 VGND VGND VPWR VPWR _092_ sky130_fd_sc_hd__o211a_1
XFILLER_13_111 VGND VGND VPWR VPWR sky130_fd_sc_hd__fill_1
X_432_ u_spi.pay\[0\] _136_ VGND VGND VPWR VPWR _218_ sky130_fd_sc_hd__nor2_1
XFILLER_26_41 VGND VGND VPWR VPWR sky130_fd_sc_hd__fill_1
X_363_ u_controller.counter_reg\[4\] net36 u_controller.dac_reg\[4\] VGND VGND VPWR
+ VPWR net13 sky130_fd_sc_hd__a21o_1
XTAP_TAPCELL_ROW_23_183 VGND VPWR sky130_fd_sc_hd__tapvpwrvgnd_1
X_294_ u_spi.pay\[9\] VGND VGND VPWR VPWR _146_ sky130_fd_sc_hd__inv_2
XTAP_TAPCELL_ROW_29_209 VGND VPWR sky130_fd_sc_hd__tapvpwrvgnd_1
XFILLER_10_169 VGND VGND VPWR VPWR sky130_fd_sc_hd__decap_3
X_346_ net123 _178_ VGND VGND VPWR VPWR _001_ sky130_fd_sc_hd__nor2_1
X_415_ u_spi.pay\[5\] net28 _207_ net111 VGND VGND VPWR VPWR _068_ sky130_fd_sc_hd__a22o_1
XFILLER_24_206 VGND VGND VPWR VPWR sky130_fd_sc_hd__fill_1
XFILLER_23_86 VGND VGND VPWR VPWR sky130_fd_sc_hd__fill_1
XFILLER_0_57 VPWR VGND VPWR VGND sky130_ef_sc_hd__decap_12
XFILLER_0_79 VGND VGND VPWR VPWR sky130_fd_sc_hd__decap_4
XTAP_TAPCELL_ROW_31_215 VGND VPWR sky130_fd_sc_hd__tapvpwrvgnd_1
X_329_ clk_cnt\[1\] clk_cnt\[0\] clk_cnt\[2\] VGND VGND VPWR VPWR _162_ sky130_fd_sc_hd__o21a_1
XFILLER_12_209 VPWR VGND VPWR VGND sky130_ef_sc_hd__decap_12
X_680_ net46 _122_ net42 VGND VGND VPWR VPWR adc_data_out\[7\] sky130_fd_sc_hd__dfrtp_1
XFILLER_34_41 VGND VGND VPWR VPWR sky130_fd_sc_hd__decap_3
XFILLER_34_85 VPWR VGND VPWR VGND sky130_ef_sc_hd__decap_12
XFILLER_38_139 VGND VGND VPWR VPWR sky130_fd_sc_hd__fill_1
XFILLER_37_161 VGND VGND VPWR VPWR sky130_fd_sc_hd__decap_6
XFILLER_37_194 VGND VGND VPWR VPWR sky130_fd_sc_hd__fill_1
XFILLER_4_238 VPWR VGND VPWR VGND sky130_ef_sc_hd__decap_12
XFILLER_20_54 VGND VGND VPWR VPWR sky130_fd_sc_hd__decap_3
Xhold41 u_spi.addr\[0\] VGND VGND VPWR VPWR net131 sky130_fd_sc_hd__dlygate4sd3_1
Xhold30 ctrl_reg\[11\] VGND VGND VPWR VPWR net120 sky130_fd_sc_hd__dlygate4sd3_1
XFILLER_29_63 VGND VGND VPWR VPWR sky130_fd_sc_hd__fill_1
X_663_ net45 _105_ net40 VGND VGND VPWR VPWR u_controller.counter_reg\[2\] sky130_fd_sc_hd__dfrtp_1
X_594_ clknet_3_4__leaf_sys_clk _071_ net57 VGND VGND VPWR VPWR ctrl_reg\[8\] sky130_fd_sc_hd__dfrtp_1
XFILLER_28_161 VGND VGND VPWR VPWR sky130_fd_sc_hd__decap_8
XFILLER_13_3 VPWR VGND VPWR VGND sky130_ef_sc_hd__decap_12
XPHY_EDGE_ROW_16_Left_59 VGND VGND VPWR VPWR sky130_fd_sc_hd__decap_3
XFILLER_19_150 VGND VGND VPWR VPWR sky130_fd_sc_hd__fill_2
XFILLER_34_175 VPWR VGND VPWR VGND sky130_ef_sc_hd__decap_12
XFILLER_34_197 VPWR VGND VPWR VGND sky130_ef_sc_hd__decap_12
XFILLER_1_219 VGND VGND VPWR VPWR sky130_fd_sc_hd__decap_4
XFILLER_25_131 VGND VGND VPWR VPWR sky130_fd_sc_hd__decap_3
XFILLER_15_54 VGND VGND VPWR VPWR sky130_fd_sc_hd__fill_2
Xoutput7 net7 VGND VGND VPWR VPWR dac[0] sky130_fd_sc_hd__buf_2
Xoutput20 net20 VGND VGND VPWR VPWR irq sky130_fd_sc_hd__buf_2
X_577_ clknet_3_2__leaf_sys_clk _039_ net55 VGND VGND VPWR VPWR u_spi.data_reg\[2\]
+ sky130_fd_sc_hd__dfrtp_1
XFILLER_16_153 VGND VGND VPWR VPWR sky130_fd_sc_hd__decap_4
XFILLER_16_197 VPWR VGND VPWR VGND sky130_ef_sc_hd__decap_12
X_646_ clknet_3_5__leaf_sys_clk net65 net59 VGND VGND VPWR VPWR clk_cnt\[31\] sky130_fd_sc_hd__dfrtp_1
XFILLER_39_245 VGND VGND VPWR VPWR sky130_fd_sc_hd__decap_3
XTAP_TAPCELL_ROW_9_127 VGND VPWR sky130_fd_sc_hd__tapvpwrvgnd_1
X_500_ u_controller.counter_reg\[1\] net64 u_controller.dac_reg\[1\] VGND VGND VPWR
+ VPWR _269_ sky130_fd_sc_hd__a21o_1
X_362_ u_controller.counter_reg\[3\] net36 u_controller.dac_reg\[3\] VGND VGND VPWR
+ VPWR net12 sky130_fd_sc_hd__a21o_1
X_431_ _134_ _186_ _215_ VGND VGND VPWR VPWR _217_ sky130_fd_sc_hd__or3_1
XFILLER_13_167 VGND VGND VPWR VPWR sky130_fd_sc_hd__fill_1
XFILLER_42_85 VPWR VGND VPWR VGND sky130_ef_sc_hd__decap_12
XFILLER_42_41 VPWR VGND VPWR VGND sky130_ef_sc_hd__decap_12
XTAP_TAPCELL_ROW_23_184 VGND VPWR sky130_fd_sc_hd__tapvpwrvgnd_1
X_293_ u_spi.pay\[8\] VGND VGND VPWR VPWR _145_ sky130_fd_sc_hd__inv_2
XFILLER_3_57 VPWR VGND VPWR VGND sky130_ef_sc_hd__decap_12
X_629_ clknet_3_7__leaf_sys_clk net82 net59 VGND VGND VPWR VPWR clk_cnt\[14\] sky130_fd_sc_hd__dfrtp_1
XFILLER_42_229 VPWR VGND VPWR VGND sky130_ef_sc_hd__decap_12
XPHY_EDGE_ROW_19_Left_62 VGND VGND VPWR VPWR sky130_fd_sc_hd__decap_3
XFILLER_10_148 VGND VGND VPWR VPWR sky130_fd_sc_hd__fill_1
XFILLER_12_55 VGND VGND VPWR VPWR sky130_fd_sc_hd__fill_1
X_414_ net50 _142_ _157_ VGND VGND VPWR VPWR _207_ sky130_fd_sc_hd__a21o_1
XFILLER_33_229 VGND VGND VPWR VPWR sky130_fd_sc_hd__fill_1
X_345_ _164_ _176_ _177_ VGND VGND VPWR VPWR _178_ sky130_fd_sc_hd__or3b_2
XPHY_EDGE_ROW_12_Right_12 VGND VGND VPWR VPWR sky130_fd_sc_hd__decap_3
XTAP_TAPCELL_ROW_2_100 VGND VPWR sky130_fd_sc_hd__tapvpwrvgnd_1
XPHY_EDGE_ROW_21_Right_21 VGND VGND VPWR VPWR sky130_fd_sc_hd__decap_3
XPHY_EDGE_ROW_4_Left_47 VGND VGND VPWR VPWR sky130_fd_sc_hd__decap_3
XFILLER_15_218 VGND VGND VPWR VPWR sky130_fd_sc_hd__decap_6
XPHY_EDGE_ROW_30_Right_30 VGND VGND VPWR VPWR sky130_fd_sc_hd__decap_3
XFILLER_0_69 VGND VGND VPWR VPWR sky130_fd_sc_hd__decap_4
X_328_ net110 net21 _161_ VGND VGND VPWR VPWR _000_ sky130_fd_sc_hd__a21oi_1
XTAP_TAPCELL_ROW_31_216 VGND VPWR sky130_fd_sc_hd__tapvpwrvgnd_1
XTAP_TAPCELL_ROW_0_90 VGND VPWR sky130_fd_sc_hd__tapvpwrvgnd_1
XFILLER_18_65 VGND VGND VPWR VPWR sky130_fd_sc_hd__fill_2
XFILLER_7_247 VGND VGND VPWR VPWR sky130_fd_sc_hd__decap_4
XFILLER_7_225 VGND VGND VPWR VPWR sky130_fd_sc_hd__fill_2
XFILLER_34_97 VGND VGND VPWR VPWR sky130_fd_sc_hd__decap_3
XFILLER_37_173 VGND VGND VPWR VPWR sky130_fd_sc_hd__fill_1
XFILLER_37_184 VGND VGND VPWR VPWR sky130_fd_sc_hd__fill_1
XFILLER_20_33 VGND VGND VPWR VPWR sky130_fd_sc_hd__fill_1
X_662_ net45 _104_ net41 VGND VGND VPWR VPWR u_controller.counter_reg\[1\] sky130_fd_sc_hd__dfrtp_1
Xhold42 u_spi.addr\[1\] VGND VGND VPWR VPWR net132 sky130_fd_sc_hd__dlygate4sd3_1
Xhold20 bit_en VGND VGND VPWR VPWR net110 sky130_fd_sc_hd__dlygate4sd3_1
Xhold31 u_spi.data_reg\[9\] VGND VGND VPWR VPWR net121 sky130_fd_sc_hd__dlygate4sd3_1
X_593_ clknet_3_6__leaf_sys_clk _070_ net62 VGND VGND VPWR VPWR ctrl_reg\[7\] sky130_fd_sc_hd__dfrtp_1
XFILLER_28_195 VGND VGND VPWR VPWR sky130_fd_sc_hd__fill_1
XPHY_EDGE_ROW_7_Left_50 VGND VGND VPWR VPWR sky130_fd_sc_hd__decap_3
XFILLER_34_187 VGND VGND VPWR VPWR sky130_fd_sc_hd__decap_8
XPHY_EDGE_ROW_6_Right_6 VGND VGND VPWR VPWR sky130_fd_sc_hd__decap_3
Xclkbuf_3_7__f_sys_clk clknet_0_sys_clk VGND VGND VPWR VPWR clknet_3_7__leaf_sys_clk
+ sky130_fd_sc_hd__clkbuf_16
XFILLER_15_33 VGND VGND VPWR VPWR sky130_fd_sc_hd__fill_1
XFILLER_25_154 VPWR VGND VPWR VGND sky130_ef_sc_hd__decap_12
XFILLER_15_77 VGND VGND VPWR VPWR sky130_fd_sc_hd__decap_3
XFILLER_15_88 VPWR VGND VPWR VGND sky130_ef_sc_hd__decap_12
XFILLER_31_65 VGND VGND VPWR VPWR sky130_fd_sc_hd__fill_1
Xoutput21 net21 VGND VGND VPWR VPWR pwr_gate sky130_fd_sc_hd__buf_2
Xoutput10 net10 VGND VGND VPWR VPWR dac[1] sky130_fd_sc_hd__buf_2
XFILLER_0_242 VGND VGND VPWR VPWR sky130_fd_sc_hd__fill_2
Xoutput8 net8 VGND VGND VPWR VPWR dac[10] sky130_fd_sc_hd__buf_2
XPHY_EDGE_ROW_33_Left_76 VGND VGND VPWR VPWR sky130_fd_sc_hd__decap_3
X_645_ clknet_3_5__leaf_sys_clk net66 net59 VGND VGND VPWR VPWR clk_cnt\[30\] sky130_fd_sc_hd__dfrtp_1
XFILLER_16_121 VGND VGND VPWR VPWR sky130_fd_sc_hd__decap_3
X_576_ clknet_3_2__leaf_sys_clk _038_ net55 VGND VGND VPWR VPWR u_spi.data_reg\[1\]
+ sky130_fd_sc_hd__dfrtp_1
XFILLER_31_113 VPWR VGND VPWR VGND sky130_ef_sc_hd__decap_12
XTAP_TAPCELL_ROW_17_160 VGND VPWR sky130_fd_sc_hd__tapvpwrvgnd_1
XFILLER_22_157 VGND VGND VPWR VPWR sky130_fd_sc_hd__decap_6
XTAP_TAPCELL_ROW_9_128 VGND VPWR sky130_fd_sc_hd__tapvpwrvgnd_1
XFILLER_42_53 VGND VGND VPWR VPWR sky130_fd_sc_hd__decap_3
X_361_ u_controller.counter_reg\[2\] net36 u_controller.dac_reg\[2\] VGND VGND VPWR
+ VPWR net11 sky130_fd_sc_hd__a21o_1
X_430_ _134_ _186_ _215_ VGND VGND VPWR VPWR _216_ sky130_fd_sc_hd__nor3_1
XFILLER_13_124 VGND VGND VPWR VPWR sky130_fd_sc_hd__fill_2
X_292_ u_spi.pay\[7\] VGND VGND VPWR VPWR _144_ sky130_fd_sc_hd__inv_2
XFILLER_42_97 VPWR VGND VPWR VGND sky130_ef_sc_hd__decap_12
XFILLER_21_190 VGND VGND VPWR VPWR sky130_fd_sc_hd__decap_3
XTAP_TAPCELL_ROW_23_185 VGND VPWR sky130_fd_sc_hd__tapvpwrvgnd_1
XFILLER_3_69 VGND VGND VPWR VPWR sky130_fd_sc_hd__fill_2
X_628_ clknet_3_7__leaf_sys_clk net83 net60 VGND VGND VPWR VPWR clk_cnt\[13\] sky130_fd_sc_hd__dfrtp_1
X_559_ clknet_3_4__leaf_sys_clk _051_ net57 VGND VGND VPWR VPWR u_spi.pay\[11\] sky130_fd_sc_hd__dfrtp_1
XFILLER_27_238 VGND VGND VPWR VPWR sky130_fd_sc_hd__decap_8
XFILLER_42_219 VGND VGND VPWR VPWR sky130_fd_sc_hd__decap_4
X_413_ u_spi.pay\[4\] net28 _206_ net129 VGND VGND VPWR VPWR _067_ sky130_fd_sc_hd__a22o_1
X_344_ u_controller.state\[1\] u_controller.state\[0\] _161_ VGND VGND VPWR VPWR _177_
+ sky130_fd_sc_hd__or3_1
XPHY_EDGE_ROW_20_Left_63 VGND VGND VPWR VPWR sky130_fd_sc_hd__decap_3
XTAP_TAPCELL_ROW_2_101 VGND VPWR sky130_fd_sc_hd__tapvpwrvgnd_1
XFILLER_3_3 VPWR VGND VPWR VGND sky130_ef_sc_hd__decap_12
XFILLER_0_15 VGND VGND VPWR VPWR sky130_fd_sc_hd__decap_3
XFILLER_9_57 VGND VGND VPWR VPWR sky130_fd_sc_hd__fill_2
X_327_ net139 bit_auto bit_en VGND VGND VPWR VPWR _161_ sky130_fd_sc_hd__o21a_1
XTAP_TAPCELL_ROW_31_217 VGND VPWR sky130_fd_sc_hd__tapvpwrvgnd_1
XTAP_TAPCELL_ROW_0_91 VGND VPWR sky130_fd_sc_hd__tapvpwrvgnd_1
XFILLER_36_3 VPWR VGND VPWR VGND sky130_ef_sc_hd__decap_12
XFILLER_34_54 VGND VGND VPWR VPWR sky130_fd_sc_hd__decap_3
XFILLER_4_207 VPWR VGND VPWR VGND sky130_ef_sc_hd__decap_12
Xhold32 u_spi.data_reg\[0\] VGND VGND VPWR VPWR net122 sky130_fd_sc_hd__dlygate4sd3_1
X_661_ net45 _103_ net41 VGND VGND VPWR VPWR u_controller.counter_reg\[0\] sky130_fd_sc_hd__dfrtp_1
Xhold43 bit_auto VGND VGND VPWR VPWR net133 sky130_fd_sc_hd__dlygate4sd3_1
Xhold21 ctrl_reg\[5\] VGND VGND VPWR VPWR net111 sky130_fd_sc_hd__dlygate4sd3_1
Xhold10 ctrl_reg\[7\] VGND VGND VPWR VPWR net100 sky130_fd_sc_hd__dlygate4sd3_1
X_592_ clknet_3_6__leaf_sys_clk net135 net62 VGND VGND VPWR VPWR bit_clk_sel sky130_fd_sc_hd__dfrtp_1
XFILLER_19_185 VGND VGND VPWR VPWR sky130_fd_sc_hd__fill_1
XFILLER_25_166 VGND VGND VPWR VPWR sky130_fd_sc_hd__fill_2
XFILLER_31_55 VGND VGND VPWR VPWR sky130_fd_sc_hd__fill_1
Xoutput11 net11 VGND VGND VPWR VPWR dac[2] sky130_fd_sc_hd__buf_2
XFILLER_0_221 VGND VGND VPWR VPWR sky130_fd_sc_hd__decap_3
Xoutput9 net9 VGND VGND VPWR VPWR dac[11] sky130_fd_sc_hd__buf_2
Xoutput22 net22 VGND VGND VPWR VPWR sample_and_hold sky130_fd_sc_hd__buf_2
X_575_ clknet_3_2__leaf_sys_clk _035_ net55 VGND VGND VPWR VPWR u_spi.data_reg\[0\]
+ sky130_fd_sc_hd__dfrtp_1
X_644_ clknet_3_5__leaf_sys_clk net67 net59 VGND VGND VPWR VPWR clk_cnt\[29\] sky130_fd_sc_hd__dfrtp_1
XTAP_TAPCELL_ROW_26_194 VGND VPWR sky130_fd_sc_hd__tapvpwrvgnd_1
XFILLER_31_125 VPWR VGND VPWR VGND sky130_ef_sc_hd__decap_12
XFILLER_39_225 VPWR VGND VPWR VGND sky130_ef_sc_hd__decap_12
XTAP_TAPCELL_ROW_17_161 VGND VPWR sky130_fd_sc_hd__tapvpwrvgnd_1
XFILLER_22_103 VGND VGND VPWR VPWR sky130_fd_sc_hd__fill_1
XFILLER_22_147 VGND VGND VPWR VPWR sky130_fd_sc_hd__fill_1
XTAP_TAPCELL_ROW_9_129 VGND VPWR sky130_fd_sc_hd__tapvpwrvgnd_1
X_360_ u_controller.counter_reg\[1\] net35 u_controller.dac_reg\[1\] VGND VGND VPWR
+ VPWR net10 sky130_fd_sc_hd__a21o_1
XFILLER_13_169 VGND VGND VPWR VPWR sky130_fd_sc_hd__decap_4
X_291_ u_spi.pay\[6\] VGND VGND VPWR VPWR _143_ sky130_fd_sc_hd__inv_2
XFILLER_3_15 VPWR VGND VPWR VGND sky130_ef_sc_hd__decap_12
X_627_ clknet_3_7__leaf_sys_clk net84 net60 VGND VGND VPWR VPWR clk_cnt\[12\] sky130_fd_sc_hd__dfrtp_1
X_558_ clknet_3_4__leaf_sys_clk _050_ net57 VGND VGND VPWR VPWR u_spi.pay\[10\] sky130_fd_sc_hd__dfrtp_1
X_489_ u_controller.counter_reg\[1\] u_controller.counter_reg\[3\] u_controller.counter_reg\[2\]
+ u_controller.counter_reg\[0\] VGND VGND VPWR VPWR _263_ sky130_fd_sc_hd__or4b_1
XFILLER_42_209 VGND VGND VPWR VPWR sky130_fd_sc_hd__fill_2
XTAP_TAPCELL_ROW_5_110 VGND VPWR sky130_fd_sc_hd__tapvpwrvgnd_1
X_412_ net50 _141_ net33 VGND VGND VPWR VPWR _206_ sky130_fd_sc_hd__a21o_1
XFILLER_37_98 VPWR VGND VPWR VGND sky130_ef_sc_hd__decap_12
XTAP_TAPCELL_ROW_11_134 VGND VPWR sky130_fd_sc_hd__tapvpwrvgnd_1
X_343_ _168_ _171_ _173_ _175_ VGND VGND VPWR VPWR _176_ sky130_fd_sc_hd__or4_1
XTAP_TAPCELL_ROW_34_226 VGND VPWR sky130_fd_sc_hd__tapvpwrvgnd_1
XFILLER_2_113 VGND VGND VPWR VPWR sky130_fd_sc_hd__decap_3
XFILLER_0_27 VGND VGND VPWR VPWR sky130_fd_sc_hd__fill_1
X_326_ net125 _159_ _160_ net28 u_spi.pay\[1\] VGND VGND VPWR VPWR _034_ sky130_fd_sc_hd__a32o_1
XTAP_TAPCELL_ROW_0_92 VGND VPWR sky130_fd_sc_hd__tapvpwrvgnd_1
XFILLER_29_3 VPWR VGND VPWR VGND sky130_ef_sc_hd__decap_12
XFILLER_11_245 VGND VGND VPWR VPWR sky130_fd_sc_hd__decap_6
X_309_ adc_data_out\[0\] net122 net34 VGND VGND VPWR VPWR _035_ sky130_fd_sc_hd__mux2_1
XFILLER_4_219 VGND VGND VPWR VPWR sky130_fd_sc_hd__decap_4
Xhold22 u_spi.bit_cnt\[4\] VGND VGND VPWR VPWR net112 sky130_fd_sc_hd__dlygate4sd3_1
Xhold11 u_spi.miso_buffer\[6\] VGND VGND VPWR VPWR net101 sky130_fd_sc_hd__dlygate4sd3_1
XFILLER_29_44 VGND VGND VPWR VPWR sky130_fd_sc_hd__fill_2
Xhold33 clk_cnt\[0\] VGND VGND VPWR VPWR net123 sky130_fd_sc_hd__dlygate4sd3_1
X_591_ clknet_3_6__leaf_sys_clk _068_ net62 VGND VGND VPWR VPWR ctrl_reg\[5\] sky130_fd_sc_hd__dfrtp_1
XFILLER_28_197 VGND VGND VPWR VPWR sky130_fd_sc_hd__fill_2
XFILLER_29_55 VGND VGND VPWR VPWR sky130_fd_sc_hd__fill_1
Xhold44 bit_clk_sel VGND VGND VPWR VPWR net134 sky130_fd_sc_hd__dlygate4sd3_1
X_660_ net47 _102_ net43 VGND VGND VPWR VPWR u_controller.dac_reg\[11\] sky130_fd_sc_hd__dfrtp_1
XFILLER_3_241 VGND VGND VPWR VPWR sky130_fd_sc_hd__decap_6
Xoutput23 net23 VGND VGND VPWR VPWR vref_sel sky130_fd_sc_hd__buf_2
Xoutput12 net12 VGND VGND VPWR VPWR dac[3] sky130_fd_sc_hd__buf_2
X_574_ clknet_3_3__leaf_sys_clk adc_ack net55 VGND VGND VPWR VPWR u_spi.eoc_s1 sky130_fd_sc_hd__dfrtp_1
X_643_ clknet_3_5__leaf_sys_clk net68 net59 VGND VGND VPWR VPWR clk_cnt\[28\] sky130_fd_sc_hd__dfrtp_1
XTAP_TAPCELL_ROW_26_195 VGND VPWR sky130_fd_sc_hd__tapvpwrvgnd_1
XFILLER_31_137 VGND VGND VPWR VPWR sky130_fd_sc_hd__decap_3
XFILLER_39_237 VGND VGND VPWR VPWR sky130_fd_sc_hd__decap_8
XFILLER_11_3 VGND VGND VPWR VPWR sky130_fd_sc_hd__decap_3
X_290_ u_spi.pay\[5\] VGND VGND VPWR VPWR _142_ sky130_fd_sc_hd__inv_2
XFILLER_3_27 VGND VGND VPWR VPWR sky130_fd_sc_hd__decap_8
X_488_ u_controller.counter_reg\[5\] u_controller.counter_reg\[4\] u_controller.counter_reg\[7\]
+ u_controller.counter_reg\[6\] VGND VGND VPWR VPWR _262_ sky130_fd_sc_hd__or4_1
X_557_ clknet_3_4__leaf_sys_clk _049_ net57 VGND VGND VPWR VPWR u_spi.pay\[9\] sky130_fd_sc_hd__dfrtp_1
X_626_ clknet_3_7__leaf_sys_clk net85 net60 VGND VGND VPWR VPWR clk_cnt\[11\] sky130_fd_sc_hd__dfrtp_1
XFILLER_12_47 VGND VGND VPWR VPWR sky130_fd_sc_hd__decap_8
XTAP_TAPCELL_ROW_5_111 VGND VPWR sky130_fd_sc_hd__tapvpwrvgnd_1
XFILLER_18_218 VGND VGND VPWR VPWR sky130_fd_sc_hd__fill_1
XTAP_TAPCELL_ROW_28_202 VGND VPWR sky130_fd_sc_hd__tapvpwrvgnd_1
XFILLER_41_221 VGND VGND VPWR VPWR sky130_fd_sc_hd__decap_3
X_411_ u_spi.pay\[3\] net28 _205_ net23 VGND VGND VPWR VPWR _066_ sky130_fd_sc_hd__a22o_1
XFILLER_26_251 VGND VGND VPWR VPWR sky130_fd_sc_hd__fill_1
X_342_ clk_cnt\[3\] clk_cnt\[5\] _174_ VGND VGND VPWR VPWR _175_ sky130_fd_sc_hd__and3_1
XFILLER_5_111 VGND VGND VPWR VPWR sky130_fd_sc_hd__fill_1
XTAP_TAPCELL_ROW_11_135 VGND VPWR sky130_fd_sc_hd__tapvpwrvgnd_1
X_609_ clknet_3_0__leaf_sys_clk _086_ net52 VGND VGND VPWR VPWR u_spi.miso_buffer\[11\]
+ sky130_fd_sc_hd__dfrtp_1
XTAP_TAPCELL_ROW_42_260 VGND VPWR sky130_fd_sc_hd__tapvpwrvgnd_1
XFILLER_32_210 VGND VGND VPWR VPWR sky130_fd_sc_hd__fill_1
XTAP_TAPCELL_ROW_34_227 VGND VPWR sky130_fd_sc_hd__tapvpwrvgnd_1
XFILLER_23_57 VGND VGND VPWR VPWR sky130_fd_sc_hd__decap_4
XFILLER_2_136 VGND VGND VPWR VPWR sky130_fd_sc_hd__decap_4
XFILLER_9_15 VPWR VGND VPWR VGND sky130_ef_sc_hd__decap_12
X_325_ _136_ net50 net33 VGND VGND VPWR VPWR _160_ sky130_fd_sc_hd__a21o_1
XTAP_TAPCELL_ROW_0_93 VGND VPWR sky130_fd_sc_hd__tapvpwrvgnd_1
XFILLER_20_235 VPWR VGND VPWR VGND sky130_ef_sc_hd__decap_12
XFILLER_18_35 VGND VGND VPWR VPWR sky130_fd_sc_hd__fill_2
XFILLER_18_46 VGND VGND VPWR VPWR sky130_fd_sc_hd__decap_6
XFILLER_18_57 VGND VGND VPWR VPWR sky130_fd_sc_hd__decap_8
Xclkload0 clknet_3_0__leaf_sys_clk VGND VGND VPWR VPWR clkload0/Y sky130_fd_sc_hd__clkinv_2
X_308_ _154_ start_clear_req _152_ VGND VGND VPWR VPWR _155_ sky130_fd_sc_hd__mux2_1
XFILLER_41_3 VPWR VGND VPWR VGND sky130_ef_sc_hd__decap_12
XFILLER_37_110 VGND VGND VPWR VPWR sky130_fd_sc_hd__fill_2
Xhold23 u_spi.data_reg\[2\] VGND VGND VPWR VPWR net113 sky130_fd_sc_hd__dlygate4sd3_1
Xhold12 u_spi.miso_buffer\[5\] VGND VGND VPWR VPWR net102 sky130_fd_sc_hd__dlygate4sd3_1
Xhold34 u_spi.miso_buffer\[11\] VGND VGND VPWR VPWR net124 sky130_fd_sc_hd__dlygate4sd3_1
Xhold45 _069_ VGND VGND VPWR VPWR net135 sky130_fd_sc_hd__dlygate4sd3_1
X_590_ clknet_3_6__leaf_sys_clk _067_ net62 VGND VGND VPWR VPWR bit_int_en sky130_fd_sc_hd__dfrtp_1
XFILLER_6_38 VGND VGND VPWR VPWR sky130_fd_sc_hd__fill_2
XFILLER_19_143 VGND VGND VPWR VPWR sky130_fd_sc_hd__decap_3
XFILLER_19_165 VGND VGND VPWR VPWR sky130_fd_sc_hd__decap_3
XFILLER_25_113 VGND VGND VPWR VPWR sky130_fd_sc_hd__decap_4
Xoutput13 net13 VGND VGND VPWR VPWR dac[4] sky130_fd_sc_hd__buf_2
XFILLER_31_57 VGND VGND VPWR VPWR sky130_fd_sc_hd__decap_8
X_642_ clknet_3_5__leaf_sys_clk net69 net58 VGND VGND VPWR VPWR clk_cnt\[27\] sky130_fd_sc_hd__dfrtp_1
X_573_ clknet_3_3__leaf_sys_clk _063_ net53 VGND VGND VPWR VPWR eoc_flag sky130_fd_sc_hd__dfrtp_1
XFILLER_16_113 VGND VGND VPWR VPWR sky130_fd_sc_hd__decap_8
XPHY_EDGE_ROW_19_Right_19 VGND VGND VPWR VPWR sky130_fd_sc_hd__decap_3
XTAP_TAPCELL_ROW_26_196 VGND VPWR sky130_fd_sc_hd__tapvpwrvgnd_1
XPHY_EDGE_ROW_28_Right_28 VGND VGND VPWR VPWR sky130_fd_sc_hd__decap_3
XPHY_EDGE_ROW_37_Right_37 VGND VGND VPWR VPWR sky130_fd_sc_hd__decap_3
XFILLER_13_116 VGND VGND VPWR VPWR sky130_fd_sc_hd__decap_4
XFILLER_13_149 VPWR VGND VPWR VGND sky130_ef_sc_hd__decap_12
XFILLER_21_182 VGND VGND VPWR VPWR sky130_fd_sc_hd__decap_8
X_625_ clknet_3_7__leaf_sys_clk net86 net60 VGND VGND VPWR VPWR clk_cnt\[10\] sky130_fd_sc_hd__dfrtp_1
X_487_ u_controller.counter_reg\[9\] u_controller.counter_reg\[8\] u_controller.counter_reg\[11\]
+ u_controller.counter_reg\[10\] VGND VGND VPWR VPWR _261_ sky130_fd_sc_hd__or4_1
X_556_ clknet_3_4__leaf_sys_clk _048_ net57 VGND VGND VPWR VPWR u_spi.pay\[8\] sky130_fd_sc_hd__dfrtp_1
XFILLER_8_197 VGND VGND VPWR VPWR sky130_fd_sc_hd__decap_8
XFILLER_8_186 VGND VGND VPWR VPWR sky130_fd_sc_hd__fill_1
Xclkbuf_3_6__f_sys_clk clknet_0_sys_clk VGND VGND VPWR VPWR clknet_3_6__leaf_sys_clk
+ sky130_fd_sc_hd__clkbuf_16
XFILLER_35_241 VGND VGND VPWR VPWR sky130_fd_sc_hd__decap_8
XFILLER_12_26 VGND VGND VPWR VPWR sky130_fd_sc_hd__fill_2
XTAP_TAPCELL_ROW_5_112 VGND VPWR sky130_fd_sc_hd__tapvpwrvgnd_1
XTAP_TAPCELL_ROW_28_203 VGND VPWR sky130_fd_sc_hd__tapvpwrvgnd_1
X_410_ _137_ net49 net33 VGND VGND VPWR VPWR _205_ sky130_fd_sc_hd__a21o_1
X_341_ clk_cnt\[1\] clk_cnt\[0\] clk_cnt\[2\] VGND VGND VPWR VPWR _174_ sky130_fd_sc_hd__a21o_1
XFILLER_5_189 VGND VGND VPWR VPWR sky130_fd_sc_hd__decap_4
XFILLER_5_167 VGND VGND VPWR VPWR sky130_fd_sc_hd__fill_1
XTAP_TAPCELL_ROW_11_136 VGND VPWR sky130_fd_sc_hd__tapvpwrvgnd_1
X_608_ clknet_3_0__leaf_sys_clk _085_ net52 VGND VGND VPWR VPWR u_spi.miso_buffer\[10\]
+ sky130_fd_sc_hd__dfrtp_1
XTAP_TAPCELL_ROW_34_228 VGND VPWR sky130_fd_sc_hd__tapvpwrvgnd_1
XTAP_TAPCELL_ROW_42_261 VGND VPWR sky130_fd_sc_hd__tapvpwrvgnd_1
X_539_ _272_ adc_data_out\[4\] net24 VGND VGND VPWR VPWR _119_ sky130_fd_sc_hd__mux2_1
XFILLER_0_29 VPWR VGND VPWR VGND sky130_ef_sc_hd__decap_12
XFILLER_9_27 VPWR VGND VPWR VGND sky130_ef_sc_hd__decap_12
X_324_ start_clear_req net33 VGND VGND VPWR VPWR _159_ sky130_fd_sc_hd__nand2_1
XPHY_EDGE_ROW_24_Left_67 VGND VGND VPWR VPWR sky130_fd_sc_hd__decap_3
XFILLER_20_247 VGND VGND VPWR VPWR sky130_fd_sc_hd__decap_4
Xclkload1 clknet_3_1__leaf_sys_clk VGND VGND VPWR VPWR clkload1/Y sky130_fd_sc_hd__clkinvlp_4
XFILLER_1_3 VPWR VGND VPWR VGND sky130_ef_sc_hd__decap_12