*SPEF "ieee 1481-1999"
*DESIGN "spi_adc"
*DATE "20:05:34 Saturday December 06, 2025"
*VENDOR "The OpenROAD Project"
*PROGRAM "OpenROAD"
*VERSION "edf00dff99f6c40d67a30c0e22a8191c5d2ed9d6"
*DESIGN_FLOW "NAME_SCOPE LOCAL" "PIN_CAP NONE"
*DIVIDER /
*DELIMITER :
*BUS_DELIMITER []
*T_UNIT 1 NS
*C_UNIT 1 PF
*R_UNIT 1 OHM
*L_UNIT 1 HENRY

*NAME_MAP
*3 adc_clk_out
*4 comparator
*5 cs
*6 dac[0]
*7 dac[10]
*8 dac[11]
*9 dac[1]
*10 dac[2]
*11 dac[3]
*12 dac[4]
*13 dac[5]
*14 dac[6]
*15 dac[7]
*16 dac[8]
*17 dac[9]
*18 dac_rst
*19 irq
*20 miso
*21 mosi
*22 pwr_gate
*23 reset_
*24 sample_and_hold
*25 sck
*26 sys_clk
*27 vref_sel
*28 _000_
*29 _001_
*30 _012_
*31 _023_
*32 _026_
*33 _027_
*34 _028_
*35 _029_
*36 _030_
*37 _033_
*38 _034_
*39 _035_
*40 _036_
*41 _037_
*42 _038_
*43 _039_
*44 _040_
*45 _041_
*46 _042_
*47 _043_
*48 _044_
*49 _045_
*50 _046_
*51 _047_
*52 _048_
*53 _049_
*54 _050_
*55 _051_
*56 _052_
*57 _053_
*58 _054_
*59 _055_
*60 _056_
*61 _057_
*62 _058_
*63 _059_
*64 _060_
*65 _061_
*66 _062_
*67 _063_
*68 _064_
*69 _065_
*70 _066_
*71 _067_
*72 _068_
*73 _069_
*74 _070_
*75 _071_
*76 _072_
*77 _073_
*78 _074_
*79 _075_
*80 _076_
*81 _077_
*82 _078_
*83 _079_
*84 _080_
*85 _081_
*86 _082_
*87 _083_
*88 _084_
*89 _085_
*90 _086_
*91 _087_
*92 _088_
*93 _089_
*94 _090_
*95 _091_
*96 _092_
*97 _093_
*98 _094_
*99 _095_
*100 _096_
*101 _097_
*102 _098_
*103 _099_
*104 _100_
*105 _101_
*106 _102_
*107 _103_
*108 _104_
*109 _105_
*110 _106_
*111 _107_
*112 _108_
*113 _109_
*114 _110_
*115 _111_
*116 _112_
*117 _113_
*118 _114_
*119 _115_
*120 _116_
*121 _117_
*122 _118_
*123 _119_
*124 _120_
*125 _121_
*126 _122_
*127 _123_
*128 _124_
*129 _125_
*130 _126_
*131 _127_
*132 _128_
*133 _129_
*134 _130_
*135 _131_
*136 _132_
*137 _133_
*138 _134_
*139 _135_
*140 _136_
*141 _137_
*142 _138_
*143 _139_
*144 _140_
*145 _141_
*146 _142_
*147 _143_
*148 _144_
*149 _145_
*150 _146_
*151 _147_
*152 _148_
*153 _149_
*154 _150_
*155 _151_
*156 _152_
*157 _153_
*158 _154_
*159 _155_
*160 _156_
*161 _157_
*162 _158_
*163 _159_
*164 _160_
*165 _161_
*166 _162_
*167 _163_
*168 _164_
*169 _165_
*170 _166_
*171 _167_
*172 _168_
*173 _169_
*174 _170_
*175 _171_
*176 _172_
*177 _173_
*178 _174_
*179 _175_
*180 _176_
*181 _177_
*182 _178_
*183 _179_
*184 _180_
*185 _181_
*186 _182_
*187 _183_
*188 _184_
*189 _185_
*190 _186_
*191 _187_
*192 _188_
*193 _189_
*194 _190_
*195 _191_
*196 _192_
*197 _193_
*198 _194_
*199 _195_
*200 _196_
*201 _197_
*202 _198_
*203 _199_
*204 _200_
*205 _201_
*206 _202_
*207 _203_
*208 _204_
*209 _205_
*210 _206_
*211 _207_
*212 _208_
*213 _209_
*214 _210_
*215 _211_
*216 _212_
*217 _213_
*218 _214_
*219 _215_
*220 _216_
*221 _217_
*222 _218_
*223 _219_
*224 _220_
*225 _221_
*226 _222_
*227 _223_
*228 _224_
*229 _225_
*230 _226_
*231 _227_
*232 _228_
*233 _229_
*234 _230_
*235 _231_
*236 _232_
*237 _233_
*238 _234_
*239 _235_
*240 _236_
*241 _237_
*242 _238_
*243 _239_
*244 _240_
*245 _241_
*246 _242_
*247 _243_
*248 _244_
*249 _245_
*250 _246_
*251 _247_
*252 _248_
*253 _249_
*254 _250_
*255 _251_
*256 _252_
*257 _253_
*258 _254_
*259 _255_
*260 _256_
*261 _257_
*262 _258_
*263 _259_
*264 _260_
*265 _261_
*266 _262_
*267 _263_
*268 _264_
*269 _265_
*270 _266_
*271 _267_
*272 _268_
*273 _269_
*274 _270_
*275 _271_
*276 _272_
*277 _273_
*278 _274_
*279 _275_
*280 _276_
*281 _277_
*282 _278_
*283 _279_
*284 _280_
*285 _281_
*286 adc_ack
*287 adc_data_out\[0\]
*288 adc_data_out\[10\]
*289 adc_data_out\[11\]
*290 adc_data_out\[1\]
*291 adc_data_out\[2\]
*292 adc_data_out\[3\]
*293 adc_data_out\[4\]
*294 adc_data_out\[5\]
*295 adc_data_out\[6\]
*296 adc_data_out\[7\]
*297 adc_data_out\[8\]
*298 adc_data_out\[9\]
*299 adc_en_n
*300 bit_auto
*301 bit_clk_sel
*302 bit_en
*303 bit_int_en
*304 bit_start
*305 clk_cnt\[0\]
*306 clk_cnt\[10\]
*307 clk_cnt\[11\]
*308 clk_cnt\[12\]
*309 clk_cnt\[13\]
*310 clk_cnt\[14\]
*311 clk_cnt\[15\]
*312 clk_cnt\[16\]
*313 clk_cnt\[17\]
*314 clk_cnt\[18\]
*315 clk_cnt\[19\]
*316 clk_cnt\[1\]
*317 clk_cnt\[20\]
*318 clk_cnt\[21\]
*319 clk_cnt\[22\]
*320 clk_cnt\[23\]
*321 clk_cnt\[24\]
*322 clk_cnt\[25\]
*323 clk_cnt\[26\]
*324 clk_cnt\[27\]
*325 clk_cnt\[28\]
*326 clk_cnt\[29\]
*327 clk_cnt\[2\]
*328 clk_cnt\[30\]
*329 clk_cnt\[31\]
*330 clk_cnt\[3\]
*331 clk_cnt\[4\]
*332 clk_cnt\[5\]
*333 clk_cnt\[6\]
*334 clk_cnt\[7\]
*335 clk_cnt\[8\]
*336 clk_cnt\[9\]
*337 clknet_0_sys_clk
*338 clknet_3_0__leaf_sys_clk
*339 clknet_3_1__leaf_sys_clk
*340 clknet_3_2__leaf_sys_clk
*341 clknet_3_3__leaf_sys_clk
*342 clknet_3_4__leaf_sys_clk
*343 clknet_3_5__leaf_sys_clk
*344 clknet_3_6__leaf_sys_clk
*345 clknet_3_7__leaf_sys_clk
*346 ctrl_reg\[10\]
*347 ctrl_reg\[11\]
*348 ctrl_reg\[5\]
*349 ctrl_reg\[7\]
*350 ctrl_reg\[8\]
*351 ctrl_reg\[9\]
*352 eoc_flag
*353 net1
*354 net10
*355 net100
*356 net101
*357 net102
*358 net103
*359 net104
*360 net105
*361 net106
*362 net107
*363 net108
*364 net109
*365 net11
*366 net110
*367 net111
*368 net112
*369 net113
*370 net114
*371 net115
*372 net116
*373 net117
*374 net118
*375 net119
*376 net12
*377 net120
*378 net121
*379 net122
*380 net123
*381 net124
*382 net125
*383 net126
*384 net127
*385 net128
*386 net129
*387 net13
*388 net130
*389 net131
*390 net132
*391 net133
*392 net134
*393 net135
*394 net136
*395 net137
*396 net138
*397 net14
*398 net15
*399 net16
*400 net17
*401 net18
*402 net19
*403 net2
*404 net20
*405 net21
*406 net22
*407 net23
*408 net24
*409 net25
*410 net26
*411 net27
*412 net28
*413 net29
*414 net3
*415 net30
*416 net31
*417 net32
*418 net33
*419 net34
*420 net35
*421 net36
*422 net37
*423 net38
*424 net39
*425 net4
*426 net40
*427 net41
*428 net42
*429 net43
*430 net44
*431 net45
*432 net46
*433 net47
*434 net48
*435 net49
*436 net5
*437 net50
*438 net51
*439 net52
*440 net53
*441 net54
*442 net55
*443 net56
*444 net57
*445 net58
*446 net59
*447 net6
*448 net60
*449 net61
*450 net62
*451 net63
*452 net64
*453 net65
*454 net66
*455 net67
*456 net68
*457 net69
*458 net7
*459 net70
*460 net71
*461 net72
*462 net73
*463 net74
*464 net75
*465 net76
*466 net77
*467 net78
*468 net79
*469 net8
*470 net80
*471 net81
*472 net82
*473 net83
*474 net84
*475 net85
*476 net86
*477 net87
*478 net88
*479 net89
*480 net9
*481 net90
*482 net91
*483 net92
*484 net93
*485 net94
*486 net95
*487 net96
*488 net97
*489 net98
*490 net99
*491 start_clear_req
*492 u_controller\.counter_reg\[0\]
*493 u_controller\.counter_reg\[10\]
*494 u_controller\.counter_reg\[11\]
*495 u_controller\.counter_reg\[1\]
*496 u_controller\.counter_reg\[2\]
*497 u_controller\.counter_reg\[3\]
*498 u_controller\.counter_reg\[4\]
*499 u_controller\.counter_reg\[5\]
*500 u_controller\.counter_reg\[6\]
*501 u_controller\.counter_reg\[7\]
*502 u_controller\.counter_reg\[8\]
*503 u_controller\.counter_reg\[9\]
*504 u_controller\.dac_reg\[0\]
*505 u_controller\.dac_reg\[10\]
*506 u_controller\.dac_reg\[11\]
*507 u_controller\.dac_reg\[1\]
*508 u_controller\.dac_reg\[2\]
*509 u_controller\.dac_reg\[3\]
*510 u_controller\.dac_reg\[4\]
*511 u_controller\.dac_reg\[5\]
*512 u_controller\.dac_reg\[6\]
*513 u_controller\.dac_reg\[7\]
*514 u_controller\.dac_reg\[8\]
*515 u_controller\.dac_reg\[9\]
*516 u_controller\.reset_
*517 u_controller\.state\[0\]
*518 u_controller\.state\[1\]
*519 u_spi\.addr\[0\]
*520 u_spi\.addr\[1\]
*521 u_spi\.bit_cnt\[0\]
*522 u_spi\.bit_cnt\[1\]
*523 u_spi\.bit_cnt\[2\]
*524 u_spi\.bit_cnt\[3\]
*525 u_spi\.bit_cnt\[4\]
*526 u_spi\.cmd\[0\]
*527 u_spi\.cmd\[1\]
*528 u_spi\.data_reg\[0\]
*529 u_spi\.data_reg\[10\]
*530 u_spi\.data_reg\[11\]
*531 u_spi\.data_reg\[1\]
*532 u_spi\.data_reg\[2\]
*533 u_spi\.data_reg\[3\]
*534 u_spi\.data_reg\[4\]
*535 u_spi\.data_reg\[5\]
*536 u_spi\.data_reg\[6\]
*537 u_spi\.data_reg\[7\]
*538 u_spi\.data_reg\[8\]
*539 u_spi\.data_reg\[9\]
*540 u_spi\.eoc_s1
*541 u_spi\.eoc_s2
*542 u_spi\.eoc_sent_high
*543 u_spi\.miso_buffer\[0\]
*544 u_spi\.miso_buffer\[10\]
*545 u_spi\.miso_buffer\[11\]
*546 u_spi\.miso_buffer\[1\]
*547 u_spi\.miso_buffer\[2\]
*548 u_spi\.miso_buffer\[3\]
*549 u_spi\.miso_buffer\[4\]
*550 u_spi\.miso_buffer\[5\]
*551 u_spi\.miso_buffer\[6\]
*552 u_spi\.miso_buffer\[7\]
*553 u_spi\.miso_buffer\[8\]
*554 u_spi\.miso_buffer\[9\]
*555 u_spi\.pay\[0\]
*556 u_spi\.pay\[10\]
*557 u_spi\.pay\[11\]
*558 u_spi\.pay\[1\]
*559 u_spi\.pay\[2\]
*560 u_spi\.pay\[3\]
*561 u_spi\.pay\[4\]
*562 u_spi\.pay\[5\]
*563 u_spi\.pay\[6\]
*564 u_spi\.pay\[7\]
*565 u_spi\.pay\[8\]
*566 u_spi\.pay\[9\]
*567 u_spi\.sck_s1
*568 u_spi\.sck_s2
*569 u_spi\.state\[0\]
*570 u_spi\.state\[1\]
*571 FILLER_0_109
*572 FILLER_0_113
*573 FILLER_0_125
*574 FILLER_0_139
*575 FILLER_0_149
*576 FILLER_0_15
*577 FILLER_0_161
*578 FILLER_0_167
*579 FILLER_0_169
*580 FILLER_0_181
*581 FILLER_0_193
*582 FILLER_0_197
*583 FILLER_0_209
*584 FILLER_0_221
*585 FILLER_0_225
*586 FILLER_0_237
*587 FILLER_0_242
*588 FILLER_0_29
*589 FILLER_0_3
*590 FILLER_0_41
*591 FILLER_0_53
*592 FILLER_0_57
*593 FILLER_0_69
*594 FILLER_0_76
*595 FILLER_0_85
*596 FILLER_0_97
*597 FILLER_10_109
*598 FILLER_10_127
*599 FILLER_10_139
*600 FILLER_10_141
*601 FILLER_10_157
*602 FILLER_10_165
*603 FILLER_10_175
*604 FILLER_10_187
*605 FILLER_10_195
*606 FILLER_10_205
*607 FILLER_10_213
*608 FILLER_10_236
*609 FILLER_10_248
*610 FILLER_10_25
*611 FILLER_10_29
*612 FILLER_10_3
*613 FILLER_10_59
*614 FILLER_10_68
*615 FILLER_10_80
*616 FILLER_10_85
*617 FILLER_10_97
*618 FILLER_11_100
*619 FILLER_11_106
*620 FILLER_11_113
*621 FILLER_11_125
*622 FILLER_11_137
*623 FILLER_11_149
*624 FILLER_11_161
*625 FILLER_11_167
*626 FILLER_11_169
*627 FILLER_11_184
*628 FILLER_11_192
*629 FILLER_11_200
*630 FILLER_11_206
*631 FILLER_11_222
*632 FILLER_11_229
*633 FILLER_11_28
*634 FILLER_11_3
*635 FILLER_11_40
*636 FILLER_11_54
*637 FILLER_11_65
*638 FILLER_11_7
*639 FILLER_11_71
*640 FILLER_11_92
*641 FILLER_12_128
*642 FILLER_12_134
*643 FILLER_12_141
*644 FILLER_12_15
*645 FILLER_12_153
*646 FILLER_12_165
*647 FILLER_12_173
*648 FILLER_12_206
*649 FILLER_12_217
*650 FILLER_12_229
*651 FILLER_12_238
*652 FILLER_12_245
*653 FILLER_12_27
*654 FILLER_12_29
*655 FILLER_12_3
*656 FILLER_12_41
*657 FILLER_12_52
*658 FILLER_12_64
*659 FILLER_12_68
*660 FILLER_12_94
*661 FILLER_13_108
*662 FILLER_13_148
*663 FILLER_13_15
*664 FILLER_13_164
*665 FILLER_13_203
*666 FILLER_13_23
*667 FILLER_13_231
*668 FILLER_13_243
*669 FILLER_13_251
*670 FILLER_13_3
*671 FILLER_13_33
*672 FILLER_13_57
*673 FILLER_13_65
*674 FILLER_13_77
*675 FILLER_13_99
*676 FILLER_14_105
*677 FILLER_14_113
*678 FILLER_14_127
*679 FILLER_14_138
*680 FILLER_14_141
*681 FILLER_14_164
*682 FILLER_14_176
*683 FILLER_14_188
*684 FILLER_14_206
*685 FILLER_14_210
*686 FILLER_14_222
*687 FILLER_14_228
*688 FILLER_14_236
*689 FILLER_14_29
*690 FILLER_14_3
*691 FILLER_14_42
*692 FILLER_14_50
*693 FILLER_14_7
*694 FILLER_14_82
*695 FILLER_14_85
*696 FILLER_14_97
*697 FILLER_15_102
*698 FILLER_15_110
*699 FILLER_15_113
*700 FILLER_15_125
*701 FILLER_15_15
*702 FILLER_15_155
*703 FILLER_15_159
*704 FILLER_15_169
*705 FILLER_15_173
*706 FILLER_15_183
*707 FILLER_15_205
*708 FILLER_15_217
*709 FILLER_15_223
*710 FILLER_15_225
*711 FILLER_15_23
*712 FILLER_15_251
*713 FILLER_15_3
*714 FILLER_15_46
*715 FILLER_15_57
*716 FILLER_15_78
*717 FILLER_15_90
*718 FILLER_16_108
*719 FILLER_16_120
*720 FILLER_16_132
*721 FILLER_16_141
*722 FILLER_16_15
*723 FILLER_16_150
*724 FILLER_16_154
*725 FILLER_16_161
*726 FILLER_16_193
*727 FILLER_16_197
*728 FILLER_16_201
*729 FILLER_16_210
*730 FILLER_16_222
*731 FILLER_16_242
*732 FILLER_16_250
*733 FILLER_16_27
*734 FILLER_16_29
*735 FILLER_16_3
*736 FILLER_16_41
*737 FILLER_16_45
*738 FILLER_16_52
*739 FILLER_16_69
*740 FILLER_16_81
*741 FILLER_16_85
*742 FILLER_16_96
*743 FILLER_17_11
*744 FILLER_17_117
*745 FILLER_17_126
*746 FILLER_17_132
*747 FILLER_17_166
*748 FILLER_17_169
*749 FILLER_17_190
*750 FILLER_17_245
*751 FILLER_17_251
*752 FILLER_17_3
*753 FILLER_17_34
*754 FILLER_17_49
*755 FILLER_17_55
*756 FILLER_17_86
*757 FILLER_18_100
*758 FILLER_18_131
*759 FILLER_18_139
*760 FILLER_18_141
*761 FILLER_18_15
*762 FILLER_18_151
*763 FILLER_18_163
*764 FILLER_18_169
*765 FILLER_18_190
*766 FILLER_18_197
*767 FILLER_18_209
*768 FILLER_18_221
*769 FILLER_18_233
*770 FILLER_18_237
*771 FILLER_18_244
*772 FILLER_18_27
*773 FILLER_18_29
*774 FILLER_18_3
*775 FILLER_18_55
*776 FILLER_18_63
*777 FILLER_18_85
*778 FILLER_18_94
*779 FILLER_19_100
*780 FILLER_19_129
*781 FILLER_19_140
*782 FILLER_19_15
*783 FILLER_19_154
*784 FILLER_19_166
*785 FILLER_19_195
*786 FILLER_19_219
*787 FILLER_19_223
*788 FILLER_19_225
*789 FILLER_19_229
*790 FILLER_19_23
*791 FILLER_19_237
*792 FILLER_19_249
*793 FILLER_19_3
*794 FILLER_19_35
*795 FILLER_19_43
*796 FILLER_19_50
*797 FILLER_19_57
*798 FILLER_19_69
*799 FILLER_19_86
*800 FILLER_1_110
*801 FILLER_1_113
*802 FILLER_1_117
*803 FILLER_1_144
*804 FILLER_1_15
*805 FILLER_1_167
*806 FILLER_1_198
*807 FILLER_1_222
*808 FILLER_1_225
*809 FILLER_1_243
*810 FILLER_1_251
*811 FILLER_1_27
*812 FILLER_1_3
*813 FILLER_1_49
*814 FILLER_1_55
*815 FILLER_1_57
*816 FILLER_1_98
*817 FILLER_20_126
*818 FILLER_20_138
*819 FILLER_20_15
*820 FILLER_20_169
*821 FILLER_20_182
*822 FILLER_20_191
*823 FILLER_20_195
*824 FILLER_20_197
*825 FILLER_20_225
*826 FILLER_20_229
*827 FILLER_20_250
*828 FILLER_20_27
*829 FILLER_20_29
*830 FILLER_20_3
*831 FILLER_20_41
*832 FILLER_20_53
*833 FILLER_20_61
*834 FILLER_20_91
*835 FILLER_21_110
*836 FILLER_21_113
*837 FILLER_21_125
*838 FILLER_21_137
*839 FILLER_21_145
*840 FILLER_21_15
*841 FILLER_21_152
*842 FILLER_21_164
*843 FILLER_21_169
*844 FILLER_21_181
*845 FILLER_21_193
*846 FILLER_21_206
*847 FILLER_21_220
*848 FILLER_21_225
*849 FILLER_21_237
*850 FILLER_21_246
*851 FILLER_21_3
*852 FILLER_21_40
*853 FILLER_21_57
*854 FILLER_21_69
*855 FILLER_21_81
*856 FILLER_21_93
*857 FILLER_21_99
*858 FILLER_22_128
*859 FILLER_22_141
*860 FILLER_22_15
*861 FILLER_22_155
*862 FILLER_22_167
*863 FILLER_22_173
*864 FILLER_22_183
*865 FILLER_22_195
*866 FILLER_22_217
*867 FILLER_22_231
*868 FILLER_22_243
*869 FILLER_22_251
*870 FILLER_22_27
*871 FILLER_22_3
*872 FILLER_22_38
*873 FILLER_22_67
*874 FILLER_22_71
*875 FILLER_22_81
*876 FILLER_22_85
*877 FILLER_23_106
*878 FILLER_23_113
*879 FILLER_23_15
*880 FILLER_23_165
*881 FILLER_23_197
*882 FILLER_23_210
*883 FILLER_23_245
*884 FILLER_23_27
*885 FILLER_23_3
*886 FILLER_23_39
*887 FILLER_23_53
*888 FILLER_23_57
*889 FILLER_23_83
*890 FILLER_24_111
*891 FILLER_24_122
*892 FILLER_24_134
*893 FILLER_24_15
*894 FILLER_24_161
*895 FILLER_24_165
*896 FILLER_24_186
*897 FILLER_24_194
*898 FILLER_24_217
*899 FILLER_24_229
*900 FILLER_24_27
*901 FILLER_24_29
*902 FILLER_24_3
*903 FILLER_24_37
*904 FILLER_24_60
*905 FILLER_25_107
*906 FILLER_25_111
*907 FILLER_25_113
*908 FILLER_25_121
*909 FILLER_25_133
*910 FILLER_25_145
*911 FILLER_25_158
*912 FILLER_25_166
*913 FILLER_25_169
*914 FILLER_25_192
*915 FILLER_25_204
*916 FILLER_25_216
*917 FILLER_25_223
*918 FILLER_25_225
*919 FILLER_25_238
*920 FILLER_25_250
*921 FILLER_25_3
*922 FILLER_25_35
*923 FILLER_25_47
*924 FILLER_25_55
*925 FILLER_25_66
*926 FILLER_25_70
*927 FILLER_25_80
*928 FILLER_25_95
*929 FILLER_26_121
*930 FILLER_26_133
*931 FILLER_26_141
*932 FILLER_26_15
*933 FILLER_26_172
*934 FILLER_26_184
*935 FILLER_26_217
*936 FILLER_26_229
*937 FILLER_26_241
*938 FILLER_26_249
*939 FILLER_26_29
*940 FILLER_26_3
*941 FILLER_26_46
*942 FILLER_26_54
*943 FILLER_26_62
*944 FILLER_26_74
*945 FILLER_26_82
*946 FILLER_26_85
*947 FILLER_26_97
*948 FILLER_27_105
*949 FILLER_27_113
*950 FILLER_27_125
*951 FILLER_27_15
*952 FILLER_27_161
*953 FILLER_27_167
*954 FILLER_27_169
*955 FILLER_27_215
*956 FILLER_27_223
*957 FILLER_27_245
*958 FILLER_27_3
*959 FILLER_27_37
*960 FILLER_27_49
*961 FILLER_27_78
*962 FILLER_27_93
*963 FILLER_28_100
*964 FILLER_28_137
*965 FILLER_28_141
*966 FILLER_28_145
*967 FILLER_28_15
*968 FILLER_28_161
*969 FILLER_28_191
*970 FILLER_28_195
*971 FILLER_28_197
*972 FILLER_28_209
*973 FILLER_28_228
*974 FILLER_28_242
*975 FILLER_28_250
*976 FILLER_28_27
*977 FILLER_28_29
*978 FILLER_28_3
*979 FILLER_28_37
*980 FILLER_28_47
*981 FILLER_28_58
*982 FILLER_28_82
*983 FILLER_28_92
*984 FILLER_29_110
*985 FILLER_29_133
*986 FILLER_29_15
*987 FILLER_29_162
*988 FILLER_29_169
*989 FILLER_29_173
*990 FILLER_29_191
*991 FILLER_29_199
*992 FILLER_29_212
*993 FILLER_29_225
*994 FILLER_29_247
*995 FILLER_29_251
*996 FILLER_29_27
*997 FILLER_29_3
*998 FILLER_29_55
*999 FILLER_2_109
*1000 FILLER_2_117
*1001 FILLER_2_15
*1002 FILLER_2_161
*1003 FILLER_2_197
*1004 FILLER_2_226
*1005 FILLER_2_250
*1006 FILLER_2_27
*1007 FILLER_2_29
*1008 FILLER_2_3
*1009 FILLER_2_85
*1010 FILLER_30_109
*1011 FILLER_30_117
*1012 FILLER_30_139
*1013 FILLER_30_141
*1014 FILLER_30_15
*1015 FILLER_30_153
*1016 FILLER_30_165
*1017 FILLER_30_177
*1018 FILLER_30_189
*1019 FILLER_30_195
*1020 FILLER_30_197
*1021 FILLER_30_238
*1022 FILLER_30_246
*1023 FILLER_30_27
*1024 FILLER_30_29
*1025 FILLER_30_3
*1026 FILLER_30_41
*1027 FILLER_30_53
*1028 FILLER_30_83
*1029 FILLER_30_85
*1030 FILLER_30_97
*1031 FILLER_31_100
*1032 FILLER_31_113
*1033 FILLER_31_125
*1034 FILLER_31_137
*1035 FILLER_31_149
*1036 FILLER_31_15
*1037 FILLER_31_157
*1038 FILLER_31_169
*1039 FILLER_31_203
*1040 FILLER_31_215
*1041 FILLER_31_223
*1042 FILLER_31_225
*1043 FILLER_31_229
*1044 FILLER_31_250
*1045 FILLER_31_3
*1046 FILLER_31_39
*1047 FILLER_31_51
*1048 FILLER_31_55
*1049 FILLER_31_64
*1050 FILLER_31_76
*1051 FILLER_32_118
*1052 FILLER_32_130
*1053 FILLER_32_141
*1054 FILLER_32_149
*1055 FILLER_32_180
*1056 FILLER_32_190
*1057 FILLER_32_197
*1058 FILLER_32_207
*1059 FILLER_32_219
*1060 FILLER_32_231
*1061 FILLER_32_241
*1062 FILLER_32_249
*1063 FILLER_32_3
*1064 FILLER_32_32
*1065 FILLER_32_44
*1066 FILLER_32_68
*1067 FILLER_32_7
*1068 FILLER_32_80
*1069 FILLER_32_85
*1070 FILLER_32_97
*1071 FILLER_33_108
*1072 FILLER_33_113
*1073 FILLER_33_119
*1074 FILLER_33_160
*1075 FILLER_33_169
*1076 FILLER_33_239
*1077 FILLER_33_246
*1078 FILLER_33_3
*1079 FILLER_33_77
*1080 FILLER_33_85
*1081 FILLER_34_115
*1082 FILLER_34_136
*1083 FILLER_34_141
*1084 FILLER_34_149
*1085 FILLER_34_159
*1086 FILLER_34_171
*1087 FILLER_34_183
*1088 FILLER_34_195
*1089 FILLER_34_197
*1090 FILLER_34_203
*1091 FILLER_34_224
*1092 FILLER_34_247
*1093 FILLER_34_251
*1094 FILLER_34_29
*1095 FILLER_34_3
*1096 FILLER_34_41
*1097 FILLER_34_75
*1098 FILLER_34_83
*1099 FILLER_34_88
*1100 FILLER_35_104
*1101 FILLER_35_11
*1102 FILLER_35_113
*1103 FILLER_35_125
*1104 FILLER_35_156
*1105 FILLER_35_169
*1106 FILLER_35_17
*1107 FILLER_35_181
*1108 FILLER_35_193
*1109 FILLER_35_205
*1110 FILLER_35_217
*1111 FILLER_35_223
*1112 FILLER_35_245
*1113 FILLER_35_251
*1114 FILLER_35_29
*1115 FILLER_35_3
*1116 FILLER_35_41
*1117 FILLER_35_49
*1118 FILLER_35_57
*1119 FILLER_35_78
*1120 FILLER_35_90
*1121 FILLER_35_98
*1122 FILLER_36_109
*1123 FILLER_36_117
*1124 FILLER_36_139
*1125 FILLER_36_141
*1126 FILLER_36_15
*1127 FILLER_36_153
*1128 FILLER_36_176
*1129 FILLER_36_188
*1130 FILLER_36_197
*1131 FILLER_36_209
*1132 FILLER_36_221
*1133 FILLER_36_237
*1134 FILLER_36_241
*1135 FILLER_36_245
*1136 FILLER_36_27
*1137 FILLER_36_29
*1138 FILLER_36_3
*1139 FILLER_36_41
*1140 FILLER_36_53
*1141 FILLER_36_64
*1142 FILLER_36_76
*1143 FILLER_36_85
*1144 FILLER_36_97
*1145 FILLER_37_105
*1146 FILLER_37_111
*1147 FILLER_37_120
*1148 FILLER_37_145
*1149 FILLER_37_15
*1150 FILLER_37_157
*1151 FILLER_37_167
*1152 FILLER_37_169
*1153 FILLER_37_181
*1154 FILLER_37_206
*1155 FILLER_37_218
*1156 FILLER_37_225
*1157 FILLER_37_237
*1158 FILLER_37_249
*1159 FILLER_37_3
*1160 FILLER_37_37
*1161 FILLER_37_52
*1162 FILLER_37_57
*1163 FILLER_37_69
*1164 FILLER_37_81
*1165 FILLER_37_93
*1166 FILLER_38_105
*1167 FILLER_38_113
*1168 FILLER_38_117
*1169 FILLER_38_124
*1170 FILLER_38_130
*1171 FILLER_38_138
*1172 FILLER_38_146
*1173 FILLER_38_154
*1174 FILLER_38_194
*1175 FILLER_38_218
*1176 FILLER_38_230
*1177 FILLER_38_242
*1178 FILLER_38_250
*1179 FILLER_38_27
*1180 FILLER_38_3
*1181 FILLER_38_32
*1182 FILLER_38_39
*1183 FILLER_38_45
*1184 FILLER_38_72
*1185 FILLER_38_83
*1186 FILLER_39_100
*1187 FILLER_39_109
*1188 FILLER_39_113
*1189 FILLER_39_117
*1190 FILLER_39_126
*1191 FILLER_39_14
*1192 FILLER_39_161
*1193 FILLER_39_167
*1194 FILLER_39_169
*1195 FILLER_39_181
*1196 FILLER_39_192
*1197 FILLER_39_204
*1198 FILLER_39_216
*1199 FILLER_39_225
*1200 FILLER_39_237
*1201 FILLER_39_245
*1202 FILLER_39_3
*1203 FILLER_3_100
*1204 FILLER_3_111
*1205 FILLER_3_133
*1206 FILLER_3_140
*1207 FILLER_3_15
*1208 FILLER_3_161
*1209 FILLER_3_167
*1210 FILLER_3_189
*1211 FILLER_3_201
*1212 FILLER_3_225
*1213 FILLER_3_233
*1214 FILLER_3_246
*1215 FILLER_3_27
*1216 FILLER_3_3
*1217 FILLER_3_41
*1218 FILLER_3_65
*1219 FILLER_3_88
*1220 FILLER_40_105
*1221 FILLER_40_141
*1222 FILLER_40_15
*1223 FILLER_40_165
*1224 FILLER_40_175
*1225 FILLER_40_190
*1226 FILLER_40_197
*1227 FILLER_40_209
*1228 FILLER_40_22
*1229 FILLER_40_221
*1230 FILLER_40_233
*1231 FILLER_40_245
*1232 FILLER_40_251
*1233 FILLER_40_29
*1234 FILLER_40_3
*1235 FILLER_40_41
*1236 FILLER_40_45
*1237 FILLER_40_70
*1238 FILLER_40_82
*1239 FILLER_41_111
*1240 FILLER_41_113
*1241 FILLER_41_131
*1242 FILLER_41_15
*1243 FILLER_41_152
*1244 FILLER_41_164
*1245 FILLER_41_189
*1246 FILLER_41_211
*1247 FILLER_41_223
*1248 FILLER_41_225
*1249 FILLER_41_237
*1250 FILLER_41_249
*1251 FILLER_41_3
*1252 FILLER_41_36
*1253 FILLER_41_44
*1254 FILLER_41_48
*1255 FILLER_41_52
*1256 FILLER_41_57
*1257 FILLER_41_65
*1258 FILLER_41_77
*1259 FILLER_41_84
*1260 FILLER_42_103
*1261 FILLER_42_111
*1262 FILLER_42_113
*1263 FILLER_42_125
*1264 FILLER_42_138
*1265 FILLER_42_141
*1266 FILLER_42_15
*1267 FILLER_42_153
*1268 FILLER_42_165
*1269 FILLER_42_169
*1270 FILLER_42_181
*1271 FILLER_42_193
*1272 FILLER_42_197
*1273 FILLER_42_209
*1274 FILLER_42_217
*1275 FILLER_42_22
*1276 FILLER_42_233
*1277 FILLER_42_241
*1278 FILLER_42_29
*1279 FILLER_42_3
*1280 FILLER_42_41
*1281 FILLER_42_53
*1282 FILLER_42_57
*1283 FILLER_42_69
*1284 FILLER_42_81
*1285 FILLER_42_85
*1286 FILLER_42_91
*1287 FILLER_4_126
*1288 FILLER_4_138
*1289 FILLER_4_141
*1290 FILLER_4_149
*1291 FILLER_4_15
*1292 FILLER_4_168
*1293 FILLER_4_176
*1294 FILLER_4_188
*1295 FILLER_4_197
*1296 FILLER_4_209
*1297 FILLER_4_221
*1298 FILLER_4_233
*1299 FILLER_4_245
*1300 FILLER_4_251
*1301 FILLER_4_27
*1302 FILLER_4_29
*1303 FILLER_4_3
*1304 FILLER_4_37
*1305 FILLER_4_44
*1306 FILLER_4_55
*1307 FILLER_4_65
*1308 FILLER_4_75
*1309 FILLER_4_83
*1310 FILLER_4_85
*1311 FILLER_4_97
*1312 FILLER_5_100
*1313 FILLER_5_113
*1314 FILLER_5_125
*1315 FILLER_5_137
*1316 FILLER_5_147
*1317 FILLER_5_159
*1318 FILLER_5_167
*1319 FILLER_5_169
*1320 FILLER_5_181
*1321 FILLER_5_193
*1322 FILLER_5_205
*1323 FILLER_5_213
*1324 FILLER_5_223
*1325 FILLER_5_225
*1326 FILLER_5_231
*1327 FILLER_5_29
*1328 FILLER_5_3
*1329 FILLER_5_36
*1330 FILLER_5_40
*1331 FILLER_5_52
*1332 FILLER_5_64
*1333 FILLER_5_76
*1334 FILLER_5_88
*1335 FILLER_6_104
*1336 FILLER_6_139
*1337 FILLER_6_15
*1338 FILLER_6_174
*1339 FILLER_6_186
*1340 FILLER_6_19
*1341 FILLER_6_204
*1342 FILLER_6_216
*1343 FILLER_6_244
*1344 FILLER_6_3
*1345 FILLER_6_44
*1346 FILLER_6_50
*1347 FILLER_6_56
*1348 FILLER_6_65
*1349 FILLER_6_76
*1350 FILLER_6_93
*1351 FILLER_7_111
*1352 FILLER_7_119
*1353 FILLER_7_125
*1354 FILLER_7_153
*1355 FILLER_7_164
*1356 FILLER_7_177
*1357 FILLER_7_211
*1358 FILLER_7_223
*1359 FILLER_7_225
*1360 FILLER_7_231
*1361 FILLER_7_238
*1362 FILLER_7_25
*1363 FILLER_7_250
*1364 FILLER_7_3
*1365 FILLER_7_34
*1366 FILLER_7_50
*1367 FILLER_7_86
*1368 FILLER_8_105
*1369 FILLER_8_109
*1370 FILLER_8_124
*1371 FILLER_8_135
*1372 FILLER_8_139
*1373 FILLER_8_15
*1374 FILLER_8_169
*1375 FILLER_8_207
*1376 FILLER_8_21
*1377 FILLER_8_243
*1378 FILLER_8_251
*1379 FILLER_8_3
*1380 FILLER_8_45
*1381 FILLER_8_53
*1382 FILLER_8_82
*1383 FILLER_9_118
*1384 FILLER_9_142
*1385 FILLER_9_15
*1386 FILLER_9_160
*1387 FILLER_9_190
*1388 FILLER_9_207
*1389 FILLER_9_215
*1390 FILLER_9_223
*1391 FILLER_9_225
*1392 FILLER_9_237
*1393 FILLER_9_246
*1394 FILLER_9_27
*1395 FILLER_9_3
*1396 FILLER_9_36
*1397 FILLER_9_48
*1398 FILLER_9_57
*1399 FILLER_9_61
*1400 FILLER_9_68
*1401 PHY_EDGE_ROW_0_Left_43
*1402 PHY_EDGE_ROW_0_Right_0
*1403 PHY_EDGE_ROW_10_Left_53
*1404 PHY_EDGE_ROW_10_Right_10
*1405 PHY_EDGE_ROW_11_Left_54
*1406 PHY_EDGE_ROW_11_Right_11
*1407 PHY_EDGE_ROW_12_Left_55
*1408 PHY_EDGE_ROW_12_Right_12
*1409 PHY_EDGE_ROW_13_Left_56
*1410 PHY_EDGE_ROW_13_Right_13
*1411 PHY_EDGE_ROW_14_Left_57
*1412 PHY_EDGE_ROW_14_Right_14
*1413 PHY_EDGE_ROW_15_Left_58
*1414 PHY_EDGE_ROW_15_Right_15
*1415 PHY_EDGE_ROW_16_Left_59
*1416 PHY_EDGE_ROW_16_Right_16
*1417 PHY_EDGE_ROW_17_Left_60
*1418 PHY_EDGE_ROW_17_Right_17
*1419 PHY_EDGE_ROW_18_Left_61
*1420 PHY_EDGE_ROW_18_Right_18
*1421 PHY_EDGE_ROW_19_Left_62
*1422 PHY_EDGE_ROW_19_Right_19
*1423 PHY_EDGE_ROW_1_Left_44
*1424 PHY_EDGE_ROW_1_Right_1
*1425 PHY_EDGE_ROW_20_Left_63
*1426 PHY_EDGE_ROW_20_Right_20
*1427 PHY_EDGE_ROW_21_Left_64
*1428 PHY_EDGE_ROW_21_Right_21
*1429 PHY_EDGE_ROW_22_Left_65
*1430 PHY_EDGE_ROW_22_Right_22
*1431 PHY_EDGE_ROW_23_Left_66
*1432 PHY_EDGE_ROW_23_Right_23
*1433 PHY_EDGE_ROW_24_Left_67
*1434 PHY_EDGE_ROW_24_Right_24
*1435 PHY_EDGE_ROW_25_Left_68
*1436 PHY_EDGE_ROW_25_Right_25
*1437 PHY_EDGE_ROW_26_Left_69
*1438 PHY_EDGE_ROW_26_Right_26
*1439 PHY_EDGE_ROW_27_Left_70
*1440 PHY_EDGE_ROW_27_Right_27
*1441 PHY_EDGE_ROW_28_Left_71
*1442 PHY_EDGE_ROW_28_Right_28
*1443 PHY_EDGE_ROW_29_Left_72
*1444 PHY_EDGE_ROW_29_Right_29
*1445 PHY_EDGE_ROW_2_Left_45
*1446 PHY_EDGE_ROW_2_Right_2
*1447 PHY_EDGE_ROW_30_Left_73
*1448 PHY_EDGE_ROW_30_Right_30
*1449 PHY_EDGE_ROW_31_Left_74
*1450 PHY_EDGE_ROW_31_Right_31
*1451 PHY_EDGE_ROW_32_Left_75
*1452 PHY_EDGE_ROW_32_Right_32
*1453 PHY_EDGE_ROW_33_Left_76
*1454 PHY_EDGE_ROW_33_Right_33
*1455 PHY_EDGE_ROW_34_Left_77
*1456 PHY_EDGE_ROW_34_Right_34
*1457 PHY_EDGE_ROW_35_Left_78
*1458 PHY_EDGE_ROW_35_Right_35
*1459 PHY_EDGE_ROW_36_Left_79
*1460 PHY_EDGE_ROW_36_Right_36
*1461 PHY_EDGE_ROW_37_Left_80
*1462 PHY_EDGE_ROW_37_Right_37
*1463 PHY_EDGE_ROW_38_Left_81
*1464 PHY_EDGE_ROW_38_Right_38
*1465 PHY_EDGE_ROW_39_Left_82
*1466 PHY_EDGE_ROW_39_Right_39
*1467 PHY_EDGE_ROW_3_Left_46
*1468 PHY_EDGE_ROW_3_Right_3
*1469 PHY_EDGE_ROW_40_Left_83
*1470 PHY_EDGE_ROW_40_Right_40
*1471 PHY_EDGE_ROW_41_Left_84
*1472 PHY_EDGE_ROW_41_Right_41
*1473 PHY_EDGE_ROW_42_Left_85
*1474 PHY_EDGE_ROW_42_Right_42
*1475 PHY_EDGE_ROW_4_Left_47
*1476 PHY_EDGE_ROW_4_Right_4
*1477 PHY_EDGE_ROW_5_Left_48
*1478 PHY_EDGE_ROW_5_Right_5
*1479 PHY_EDGE_ROW_6_Left_49
*1480 PHY_EDGE_ROW_6_Right_6
*1481 PHY_EDGE_ROW_7_Left_50
*1482 PHY_EDGE_ROW_7_Right_7
*1483 PHY_EDGE_ROW_8_Left_51
*1484 PHY_EDGE_ROW_8_Right_8
*1485 PHY_EDGE_ROW_9_Left_52
*1486 PHY_EDGE_ROW_9_Right_9
*1487 TAP_TAPCELL_ROW_0_86
*1488 TAP_TAPCELL_ROW_0_87
*1489 TAP_TAPCELL_ROW_0_88
*1490 TAP_TAPCELL_ROW_0_89
*1491 TAP_TAPCELL_ROW_0_90
*1492 TAP_TAPCELL_ROW_0_91
*1493 TAP_TAPCELL_ROW_0_92
*1494 TAP_TAPCELL_ROW_0_93
*1495 TAP_TAPCELL_ROW_10_130
*1496 TAP_TAPCELL_ROW_10_131
*1497 TAP_TAPCELL_ROW_10_132
*1498 TAP_TAPCELL_ROW_10_133
*1499 TAP_TAPCELL_ROW_11_134
*1500 TAP_TAPCELL_ROW_11_135
*1501 TAP_TAPCELL_ROW_11_136
*1502 TAP_TAPCELL_ROW_11_137
*1503 TAP_TAPCELL_ROW_12_138
*1504 TAP_TAPCELL_ROW_12_139
*1505 TAP_TAPCELL_ROW_12_140
*1506 TAP_TAPCELL_ROW_12_141
*1507 TAP_TAPCELL_ROW_13_142
*1508 TAP_TAPCELL_ROW_13_143
*1509 TAP_TAPCELL_ROW_13_144
*1510 TAP_TAPCELL_ROW_13_145
*1511 TAP_TAPCELL_ROW_14_146
*1512 TAP_TAPCELL_ROW_14_147
*1513 TAP_TAPCELL_ROW_14_148
*1514 TAP_TAPCELL_ROW_14_149
*1515 TAP_TAPCELL_ROW_15_150
*1516 TAP_TAPCELL_ROW_15_151
*1517 TAP_TAPCELL_ROW_15_152
*1518 TAP_TAPCELL_ROW_15_153
*1519 TAP_TAPCELL_ROW_16_154
*1520 TAP_TAPCELL_ROW_16_155
*1521 TAP_TAPCELL_ROW_16_156
*1522 TAP_TAPCELL_ROW_16_157
*1523 TAP_TAPCELL_ROW_17_158
*1524 TAP_TAPCELL_ROW_17_159
*1525 TAP_TAPCELL_ROW_17_160
*1526 TAP_TAPCELL_ROW_17_161
*1527 TAP_TAPCELL_ROW_18_162
*1528 TAP_TAPCELL_ROW_18_163
*1529 TAP_TAPCELL_ROW_18_164
*1530 TAP_TAPCELL_ROW_18_165
*1531 TAP_TAPCELL_ROW_19_166
*1532 TAP_TAPCELL_ROW_19_167
*1533 TAP_TAPCELL_ROW_19_168
*1534 TAP_TAPCELL_ROW_19_169
*1535 TAP_TAPCELL_ROW_1_94
*1536 TAP_TAPCELL_ROW_1_95
*1537 TAP_TAPCELL_ROW_1_96
*1538 TAP_TAPCELL_ROW_1_97
*1539 TAP_TAPCELL_ROW_20_170
*1540 TAP_TAPCELL_ROW_20_171
*1541 TAP_TAPCELL_ROW_20_172
*1542 TAP_TAPCELL_ROW_20_173
*1543 TAP_TAPCELL_ROW_21_174
*1544 TAP_TAPCELL_ROW_21_175
*1545 TAP_TAPCELL_ROW_21_176
*1546 TAP_TAPCELL_ROW_21_177
*1547 TAP_TAPCELL_ROW_22_178
*1548 TAP_TAPCELL_ROW_22_179
*1549 TAP_TAPCELL_ROW_22_180
*1550 TAP_TAPCELL_ROW_22_181
*1551 TAP_TAPCELL_ROW_23_182
*1552 TAP_TAPCELL_ROW_23_183
*1553 TAP_TAPCELL_ROW_23_184
*1554 TAP_TAPCELL_ROW_23_185
*1555 TAP_TAPCELL_ROW_24_186
*1556 TAP_TAPCELL_ROW_24_187
*1557 TAP_TAPCELL_ROW_24_188
*1558 TAP_TAPCELL_ROW_24_189
*1559 TAP_TAPCELL_ROW_25_190
*1560 TAP_TAPCELL_ROW_25_191
*1561 TAP_TAPCELL_ROW_25_192
*1562 TAP_TAPCELL_ROW_25_193
*1563 TAP_TAPCELL_ROW_26_194
*1564 TAP_TAPCELL_ROW_26_195
*1565 TAP_TAPCELL_ROW_26_196
*1566 TAP_TAPCELL_ROW_26_197
*1567 TAP_TAPCELL_ROW_27_198
*1568 TAP_TAPCELL_ROW_27_199
*1569 TAP_TAPCELL_ROW_27_200
*1570 TAP_TAPCELL_ROW_27_201
*1571 TAP_TAPCELL_ROW_28_202
*1572 TAP_TAPCELL_ROW_28_203
*1573 TAP_TAPCELL_ROW_28_204
*1574 TAP_TAPCELL_ROW_28_205
*1575 TAP_TAPCELL_ROW_29_206
*1576 TAP_TAPCELL_ROW_29_207
*1577 TAP_TAPCELL_ROW_29_208
*1578 TAP_TAPCELL_ROW_29_209
*1579 TAP_TAPCELL_ROW_2_100
*1580 TAP_TAPCELL_ROW_2_101
*1581 TAP_TAPCELL_ROW_2_98
*1582 TAP_TAPCELL_ROW_2_99
*1583 TAP_TAPCELL_ROW_30_210
*1584 TAP_TAPCELL_ROW_30_211
*1585 TAP_TAPCELL_ROW_30_212
*1586 TAP_TAPCELL_ROW_30_213
*1587 TAP_TAPCELL_ROW_31_214
*1588 TAP_TAPCELL_ROW_31_215
*1589 TAP_TAPCELL_ROW_31_216
*1590 TAP_TAPCELL_ROW_31_217
*1591 TAP_TAPCELL_ROW_32_218
*1592 TAP_TAPCELL_ROW_32_219
*1593 TAP_TAPCELL_ROW_32_220
*1594 TAP_TAPCELL_ROW_32_221
*1595 TAP_TAPCELL_ROW_33_222
*1596 TAP_TAPCELL_ROW_33_223
*1597 TAP_TAPCELL_ROW_33_224
*1598 TAP_TAPCELL_ROW_33_225
*1599 TAP_TAPCELL_ROW_34_226
*1600 TAP_TAPCELL_ROW_34_227