*SPEF "ieee 1481-1999"
*DESIGN "spi_adc"
*DATE "14:18:04 Sunday December 07, 2025"
*VENDOR "The OpenROAD Project"
*PROGRAM "OpenROAD"
*VERSION "edf00dff99f6c40d67a30c0e22a8191c5d2ed9d6"
*DESIGN_FLOW "NAME_SCOPE LOCAL" "PIN_CAP NONE"
*DIVIDER /
*DELIMITER :
*BUS_DELIMITER []
*T_UNIT 1 NS
*C_UNIT 1 PF
*R_UNIT 1 OHM
*L_UNIT 1 HENRY

*NAME_MAP
*3 adc_clk_out
*4 comparator
*5 cs
*6 dac[0]
*7 dac[10]
*8 dac[11]
*9 dac[1]
*10 dac[2]
*11 dac[3]
*12 dac[4]
*13 dac[5]
*14 dac[6]
*15 dac[7]
*16 dac[8]
*17 dac[9]
*18 dac_rst
*19 irq
*20 miso
*21 mosi
*22 pwr_gate
*23 reset_
*24 sample_and_hold
*25 sck
*26 sys_clk
*27 vref_sel
*28 _000_
*29 _001_
*30 _012_
*31 _023_
*32 _026_
*33 _027_
*34 _028_
*35 _033_
*36 _034_
*37 _035_
*38 _036_
*39 _037_
*40 _038_
*41 _039_
*42 _040_
*43 _041_
*44 _042_
*45 _043_
*46 _044_
*47 _045_
*48 _046_
*49 _047_
*50 _048_
*51 _049_
*52 _050_
*53 _051_
*54 _052_
*55 _053_
*56 _054_
*57 _055_
*58 _056_
*59 _057_
*60 _058_
*61 _059_
*62 _060_
*63 _061_
*64 _062_
*65 _063_
*66 _064_
*67 _065_
*68 _066_
*69 _067_
*70 _068_
*71 _069_
*72 _070_
*73 _071_
*74 _072_
*75 _073_
*76 _074_
*77 _075_
*78 _076_
*79 _077_
*80 _078_
*81 _079_
*82 _080_
*83 _081_
*84 _082_
*85 _083_
*86 _084_
*87 _085_
*88 _086_
*89 _087_
*90 _088_
*91 _089_
*92 _090_
*93 _091_
*94 _092_
*95 _093_
*96 _094_
*97 _095_
*98 _096_
*99 _097_
*100 _098_
*101 _099_
*102 _100_
*103 _101_
*104 _102_
*105 _103_
*106 _104_
*107 _105_
*108 _106_
*109 _107_
*110 _108_
*111 _109_
*112 _110_
*113 _111_
*114 _112_
*115 _113_
*116 _114_
*117 _115_
*118 _116_
*119 _117_
*120 _118_
*121 _119_
*122 _120_
*123 _121_
*124 _122_
*125 _123_
*126 _124_
*127 _125_
*128 _126_
*129 _127_
*130 _128_
*131 _129_
*132 _130_
*133 _131_
*134 _132_
*135 _133_
*136 _134_
*137 _135_
*138 _136_
*139 _137_
*140 _138_
*141 _139_
*142 _140_
*143 _141_
*144 _142_
*145 _143_
*146 _144_
*147 _145_
*148 _146_
*149 _147_
*150 _148_
*151 _149_
*152 _150_
*153 _151_
*154 _152_
*155 _153_
*156 _154_
*157 _155_
*158 _156_
*159 _157_
*160 _158_
*161 _159_
*162 _160_
*163 _161_
*164 _162_
*165 _163_
*166 _164_
*167 _165_
*168 _166_
*169 _167_
*170 _168_
*171 _169_
*172 _170_
*173 _171_
*174 _172_
*175 _173_
*176 _174_
*177 _175_
*178 _176_
*179 _177_
*180 _178_
*181 _179_
*182 _180_
*183 _181_
*184 _182_
*185 _183_
*186 _184_
*187 _185_
*188 _186_
*189 _187_
*190 _188_
*191 _189_
*192 _190_
*193 _191_
*194 _192_
*195 _193_
*196 _194_
*197 _195_
*198 _196_
*199 _197_
*200 _198_
*201 _199_
*202 _200_
*203 _201_
*204 _202_
*205 _203_
*206 _204_
*207 _205_
*208 _206_
*209 _207_
*210 _208_
*211 _209_
*212 _210_
*213 _211_
*214 _212_
*215 _213_
*216 _214_
*217 _215_
*218 _216_
*219 _217_
*220 _218_
*221 _219_
*222 _220_
*223 _221_
*224 _222_
*225 _223_
*226 _224_
*227 _225_
*228 _226_
*229 _227_
*230 _228_
*231 _229_
*232 _230_
*233 _231_
*234 _232_
*235 _233_
*236 _234_
*237 _235_
*238 _236_
*239 _237_
*240 _238_
*241 _239_
*242 _240_
*243 _241_
*244 _242_
*245 _243_
*246 _244_
*247 _245_
*248 _246_
*249 _247_
*250 _248_
*251 _249_
*252 _250_
*253 _251_
*254 _252_
*255 _253_
*256 _254_
*257 _255_
*258 _256_
*259 _257_
*260 _258_
*261 _259_
*262 _260_
*263 _261_
*264 _262_
*265 _263_
*266 _264_
*267 _265_
*268 _266_
*269 _267_
*270 _268_
*271 _269_
*272 _270_
*273 _271_
*274 _272_
*275 _273_
*276 _274_
*277 _275_
*278 _276_
*279 _277_
*280 _278_
*281 _279_
*282 _280_
*283 _281_
*284 adc_ack
*285 adc_data_out\[0\]
*286 adc_data_out\[10\]
*287 adc_data_out\[11\]
*288 adc_data_out\[1\]
*289 adc_data_out\[2\]
*290 adc_data_out\[3\]
*291 adc_data_out\[4\]
*292 adc_data_out\[5\]
*293 adc_data_out\[6\]
*294 adc_data_out\[7\]
*295 adc_data_out\[8\]
*296 adc_data_out\[9\]
*297 adc_en_n
*298 bit_auto
*299 bit_clk_sel
*300 bit_en
*301 bit_int_en
*302 bit_start
*303 clk_cnt\[0\]
*304 clk_cnt\[10\]
*305 clk_cnt\[11\]
*306 clk_cnt\[12\]
*307 clk_cnt\[13\]
*308 clk_cnt\[14\]
*309 clk_cnt\[15\]
*310 clk_cnt\[16\]
*311 clk_cnt\[17\]
*312 clk_cnt\[18\]
*313 clk_cnt\[19\]
*314 clk_cnt\[1\]
*315 clk_cnt\[20\]
*316 clk_cnt\[21\]
*317 clk_cnt\[22\]
*318 clk_cnt\[23\]
*319 clk_cnt\[24\]
*320 clk_cnt\[25\]
*321 clk_cnt\[26\]
*322 clk_cnt\[27\]
*323 clk_cnt\[28\]
*324 clk_cnt\[29\]
*325 clk_cnt\[2\]
*326 clk_cnt\[30\]
*327 clk_cnt\[31\]
*328 clk_cnt\[3\]
*329 clk_cnt\[4\]
*330 clk_cnt\[5\]
*331 clk_cnt\[6\]
*332 clk_cnt\[7\]
*333 clk_cnt\[8\]
*334 clk_cnt\[9\]
*335 clknet_0_sys_clk
*336 clknet_3_0__leaf_sys_clk
*337 clknet_3_1__leaf_sys_clk
*338 clknet_3_2__leaf_sys_clk
*339 clknet_3_3__leaf_sys_clk
*340 clknet_3_4__leaf_sys_clk
*341 clknet_3_5__leaf_sys_clk
*342 clknet_3_6__leaf_sys_clk
*343 clknet_3_7__leaf_sys_clk
*344 ctrl_reg\[10\]
*345 ctrl_reg\[11\]
*346 ctrl_reg\[5\]
*347 ctrl_reg\[7\]
*348 ctrl_reg\[8\]
*349 ctrl_reg\[9\]
*350 eoc_flag
*351 net1
*352 net10
*353 net100
*354 net101
*355 net102
*356 net103
*357 net104
*358 net105
*359 net106
*360 net107
*361 net108
*362 net109
*363 net11
*364 net110
*365 net111
*366 net112
*367 net113
*368 net114
*369 net115
*370 net116
*371 net117
*372 net118
*373 net119
*374 net12
*375 net120
*376 net121
*377 net122
*378 net123
*379 net124
*380 net125
*381 net126
*382 net127
*383 net128
*384 net129
*385 net13
*386 net130
*387 net131
*388 net132
*389 net133
*390 net134
*391 net135
*392 net136
*393 net137
*394 net138
*395 net139
*396 net14
*397 net15
*398 net16
*399 net17
*400 net18
*401 net19
*402 net2
*403 net20
*404 net21
*405 net22
*406 net23
*407 net24
*408 net25
*409 net26
*410 net27
*411 net28
*412 net29
*413 net3
*414 net30
*415 net31
*416 net32
*417 net33
*418 net34
*419 net35
*420 net36
*421 net37
*422 net38
*423 net39
*424 net4
*425 net40
*426 net41
*427 net42
*428 net43
*429 net44
*430 net45
*431 net46
*432 net47
*433 net48
*434 net49
*435 net5
*436 net50
*437 net51
*438 net52
*439 net53
*440 net54
*441 net55
*442 net56
*443 net57
*444 net58
*445 net59
*446 net6
*447 net60
*448 net61
*449 net62
*450 net63
*451 net64
*452 net65
*453 net66
*454 net67
*455 net68
*456 net69
*457 net7
*458 net70
*459 net71
*460 net72
*461 net73
*462 net74
*463 net75
*464 net76
*465 net77
*466 net78
*467 net79
*468 net8
*469 net80
*470 net81
*471 net82
*472 net83
*473 net84
*474 net85
*475 net86
*476 net87
*477 net88
*478 net89
*479 net9
*480 net90
*481 net91
*482 net92
*483 net93
*484 net94
*485 net95
*486 net96
*487 net97
*488 net98
*489 net99
*490 start_clear_req
*491 u_controller\.counter_reg\[0\]
*492 u_controller\.counter_reg\[10\]
*493 u_controller\.counter_reg\[11\]
*494 u_controller\.counter_reg\[1\]
*495 u_controller\.counter_reg\[2\]
*496 u_controller\.counter_reg\[3\]
*497 u_controller\.counter_reg\[4\]
*498 u_controller\.counter_reg\[5\]
*499 u_controller\.counter_reg\[6\]
*500 u_controller\.counter_reg\[7\]
*501 u_controller\.counter_reg\[8\]
*502 u_controller\.counter_reg\[9\]
*503 u_controller\.dac_reg\[0\]
*504 u_controller\.dac_reg\[10\]
*505 u_controller\.dac_reg\[11\]
*506 u_controller\.dac_reg\[1\]
*507 u_controller\.dac_reg\[2\]
*508 u_controller\.dac_reg\[3\]
*509 u_controller\.dac_reg\[4\]
*510 u_controller\.dac_reg\[5\]
*511 u_controller\.dac_reg\[6\]
*512 u_controller\.dac_reg\[7\]
*513 u_controller\.dac_reg\[8\]
*514 u_controller\.dac_reg\[9\]
*515 u_controller\.reset_
*516 u_controller\.state\[0\]
*517 u_controller\.state\[1\]
*518 u_spi\.addr\[0\]
*519 u_spi\.addr\[1\]
*520 u_spi\.bit_cnt\[0\]
*521 u_spi\.bit_cnt\[1\]
*522 u_spi\.bit_cnt\[2\]
*523 u_spi\.bit_cnt\[3\]
*524 u_spi\.bit_cnt\[4\]
*525 u_spi\.cmd\[0\]
*526 u_spi\.cmd\[1\]
*527 u_spi\.data_reg\[0\]
*528 u_spi\.data_reg\[10\]
*529 u_spi\.data_reg\[11\]
*530 u_spi\.data_reg\[1\]
*531 u_spi\.data_reg\[2\]
*532 u_spi\.data_reg\[3\]
*533 u_spi\.data_reg\[4\]
*534 u_spi\.data_reg\[5\]
*535 u_spi\.data_reg\[6\]
*536 u_spi\.data_reg\[7\]
*537 u_spi\.data_reg\[8\]
*538 u_spi\.data_reg\[9\]
*539 u_spi\.eoc_s1
*540 u_spi\.eoc_s2
*541 u_spi\.eoc_sent_high
*542 u_spi\.miso_buffer\[0\]
*543 u_spi\.miso_buffer\[10\]
*544 u_spi\.miso_buffer\[11\]
*545 u_spi\.miso_buffer\[1\]
*546 u_spi\.miso_buffer\[2\]
*547 u_spi\.miso_buffer\[3\]
*548 u_spi\.miso_buffer\[4\]
*549 u_spi\.miso_buffer\[5\]
*550 u_spi\.miso_buffer\[6\]
*551 u_spi\.miso_buffer\[7\]
*552 u_spi\.miso_buffer\[8\]
*553 u_spi\.miso_buffer\[9\]
*554 u_spi\.pay\[0\]
*555 u_spi\.pay\[10\]
*556 u_spi\.pay\[11\]
*557 u_spi\.pay\[1\]
*558 u_spi\.pay\[2\]
*559 u_spi\.pay\[3\]
*560 u_spi\.pay\[4\]
*561 u_spi\.pay\[5\]
*562 u_spi\.pay\[6\]
*563 u_spi\.pay\[7\]
*564 u_spi\.pay\[8\]
*565 u_spi\.pay\[9\]
*566 u_spi\.sck_s1
*567 u_spi\.sck_s2
*568 u_spi\.state\[0\]
*569 u_spi\.state\[1\]
*570 FILLER_0_106
*571 FILLER_0_113
*572 FILLER_0_125
*573 FILLER_0_131
*574 FILLER_0_139
*575 FILLER_0_141
*576 FILLER_0_15
*577 FILLER_0_153
*578 FILLER_0_165
*579 FILLER_0_169
*580 FILLER_0_181
*581 FILLER_0_193
*582 FILLER_0_197
*583 FILLER_0_209
*584 FILLER_0_21
*585 FILLER_0_221
*586 FILLER_0_225
*587 FILLER_0_237
*588 FILLER_0_242
*589 FILLER_0_27
*590 FILLER_0_29
*591 FILLER_0_3
*592 FILLER_0_41
*593 FILLER_0_53
*594 FILLER_0_57
*595 FILLER_0_69
*596 FILLER_0_79
*597 FILLER_0_83
*598 FILLER_10_110
*599 FILLER_10_124
*600 FILLER_10_132
*601 FILLER_10_148
*602 FILLER_10_157
*603 FILLER_10_169
*604 FILLER_10_181
*605 FILLER_10_195
*606 FILLER_10_206
*607 FILLER_10_218
*608 FILLER_10_228
*609 FILLER_10_246
*610 FILLER_10_26
*611 FILLER_10_29
*612 FILLER_10_3
*613 FILLER_10_37
*614 FILLER_10_58
*615 FILLER_10_63
*616 FILLER_10_93
*617 FILLER_11_107
*618 FILLER_11_111
*619 FILLER_11_113
*620 FILLER_11_121
*621 FILLER_11_129
*622 FILLER_11_152
*623 FILLER_11_164
*624 FILLER_11_209
*625 FILLER_11_215
*626 FILLER_11_245
*627 FILLER_11_251
*628 FILLER_11_3
*629 FILLER_11_34
*630 FILLER_11_38
*631 FILLER_11_42
*632 FILLER_11_54
*633 FILLER_11_57
*634 FILLER_11_69
*635 FILLER_11_92
*636 FILLER_12_114
*637 FILLER_12_126
*638 FILLER_12_132
*639 FILLER_12_136
*640 FILLER_12_141
*641 FILLER_12_163
*642 FILLER_12_175
*643 FILLER_12_187
*644 FILLER_12_195
*645 FILLER_12_197
*646 FILLER_12_209
*647 FILLER_12_221
*648 FILLER_12_233
*649 FILLER_12_245
*650 FILLER_12_26
*651 FILLER_12_29
*652 FILLER_12_3
*653 FILLER_12_47
*654 FILLER_12_55
*655 FILLER_12_62
*656 FILLER_12_70
*657 FILLER_12_80
*658 FILLER_12_85
*659 FILLER_13_107
*660 FILLER_13_111
*661 FILLER_13_116
*662 FILLER_13_124
*663 FILLER_13_131
*664 FILLER_13_149
*665 FILLER_13_161
*666 FILLER_13_167
*667 FILLER_13_169
*668 FILLER_13_173
*669 FILLER_13_183
*670 FILLER_13_214
*671 FILLER_13_222
*672 FILLER_13_225
*673 FILLER_13_233
*674 FILLER_13_24
*675 FILLER_13_245
*676 FILLER_13_251
*677 FILLER_13_3
*678 FILLER_13_36
*679 FILLER_13_44
*680 FILLER_13_52
*681 FILLER_13_57
*682 FILLER_13_61
*683 FILLER_13_68
*684 FILLER_13_76
*685 FILLER_13_81
*686 FILLER_13_95
*687 FILLER_14_125
*688 FILLER_14_15
*689 FILLER_14_161
*690 FILLER_14_165
*691 FILLER_14_194
*692 FILLER_14_197
*693 FILLER_14_203
*694 FILLER_14_27
*695 FILLER_14_29
*696 FILLER_14_3
*697 FILLER_14_37
*698 FILLER_14_43
*699 FILLER_14_76
*700 FILLER_14_85
*701 FILLER_14_97
*702 FILLER_15_100
*703 FILLER_15_119
*704 FILLER_15_131
*705 FILLER_15_139
*706 FILLER_15_15
*707 FILLER_15_151
*708 FILLER_15_189
*709 FILLER_15_210
*710 FILLER_15_218
*711 FILLER_15_225
*712 FILLER_15_237
*713 FILLER_15_245
*714 FILLER_15_27
*715 FILLER_15_3
*716 FILLER_15_33
*717 FILLER_15_54
*718 FILLER_15_77
*719 FILLER_15_88
*720 FILLER_16_104
*721 FILLER_16_113
*722 FILLER_16_121
*723 FILLER_16_139
*724 FILLER_16_141
*725 FILLER_16_153
*726 FILLER_16_191
*727 FILLER_16_195
*728 FILLER_16_197
*729 FILLER_16_209
*730 FILLER_16_217
*731 FILLER_16_238
*732 FILLER_16_250
*733 FILLER_16_27
*734 FILLER_16_29
*735 FILLER_16_3
*736 FILLER_16_38
*737 FILLER_16_83
*738 FILLER_16_85
*739 FILLER_16_93
*740 FILLER_17_106
*741 FILLER_17_113
*742 FILLER_17_121
*743 FILLER_17_133
*744 FILLER_17_142
*745 FILLER_17_154
*746 FILLER_17_163
*747 FILLER_17_167
*748 FILLER_17_169
*749 FILLER_17_176
*750 FILLER_17_182
*751 FILLER_17_189
*752 FILLER_17_195
*753 FILLER_17_203
*754 FILLER_17_215
*755 FILLER_17_219
*756 FILLER_17_238
*757 FILLER_17_246
*758 FILLER_17_3
*759 FILLER_17_55
*760 FILLER_17_57
*761 FILLER_17_69
*762 FILLER_18_125
*763 FILLER_18_133
*764 FILLER_18_15
*765 FILLER_18_161
*766 FILLER_18_173
*767 FILLER_18_185
*768 FILLER_18_193
*769 FILLER_18_197
*770 FILLER_18_212
*771 FILLER_18_218
*772 FILLER_18_27
*773 FILLER_18_3
*774 FILLER_18_35
*775 FILLER_18_46
*776 FILLER_18_52
*777 FILLER_18_57
*778 FILLER_18_65
*779 FILLER_19_106
*780 FILLER_19_113
*781 FILLER_19_119
*782 FILLER_19_143
*783 FILLER_19_15
*784 FILLER_19_150
*785 FILLER_19_157
*786 FILLER_19_165
*787 FILLER_19_177
*788 FILLER_19_185
*789 FILLER_19_206
*790 FILLER_19_214
*791 FILLER_19_223
*792 FILLER_19_245
*793 FILLER_19_251
*794 FILLER_19_27
*795 FILLER_19_3
*796 FILLER_19_55
*797 FILLER_19_63
*798 FILLER_19_75
*799 FILLER_19_83
*800 FILLER_19_94
*801 FILLER_1_113
*802 FILLER_1_125
*803 FILLER_1_148
*804 FILLER_1_15
*805 FILLER_1_160
*806 FILLER_1_189
*807 FILLER_1_197
*808 FILLER_1_219
*809 FILLER_1_223
*810 FILLER_1_225
*811 FILLER_1_248
*812 FILLER_1_27
*813 FILLER_1_3
*814 FILLER_1_39
*815 FILLER_1_51
*816 FILLER_1_55
*817 FILLER_1_62
*818 FILLER_1_85
*819 FILLER_20_101
*820 FILLER_20_126
*821 FILLER_20_137
*822 FILLER_20_15
*823 FILLER_20_218
*824 FILLER_20_228
*825 FILLER_20_235
*826 FILLER_20_247
*827 FILLER_20_251
*828 FILLER_20_27
*829 FILLER_20_29
*830 FILLER_20_3
*831 FILLER_20_33
*832 FILLER_20_54
*833 FILLER_20_63
*834 FILLER_20_75
*835 FILLER_20_83
*836 FILLER_20_85
*837 FILLER_20_97
*838 FILLER_21_105
*839 FILLER_21_11
*840 FILLER_21_133
*841 FILLER_21_145
*842 FILLER_21_157
*843 FILLER_21_165
*844 FILLER_21_169
*845 FILLER_21_175
*846 FILLER_21_182
*847 FILLER_21_190
*848 FILLER_21_201
*849 FILLER_21_213
*850 FILLER_21_221
*851 FILLER_21_225
*852 FILLER_21_237
*853 FILLER_21_246
*854 FILLER_21_3
*855 FILLER_21_41
*856 FILLER_21_57
*857 FILLER_21_75
*858 FILLER_21_87
*859 FILLER_21_99
*860 FILLER_22_103
*861 FILLER_22_131
*862 FILLER_22_139
*863 FILLER_22_141
*864 FILLER_22_147
*865 FILLER_22_15
*866 FILLER_22_157
*867 FILLER_22_192
*868 FILLER_22_197
*869 FILLER_22_208
*870 FILLER_22_220
*871 FILLER_22_230
*872 FILLER_22_242
*873 FILLER_22_250
*874 FILLER_22_27
*875 FILLER_22_29
*876 FILLER_22_3
*877 FILLER_22_33
*878 FILLER_22_51
*879 FILLER_22_59
*880 FILLER_22_82
*881 FILLER_22_85
*882 FILLER_22_93
*883 FILLER_23_110
*884 FILLER_23_116
*885 FILLER_23_126
*886 FILLER_23_136
*887 FILLER_23_15
*888 FILLER_23_159
*889 FILLER_23_167
*890 FILLER_23_169
*891 FILLER_23_181
*892 FILLER_23_193
*893 FILLER_23_197
*894 FILLER_23_215
*895 FILLER_23_245
*896 FILLER_23_3
*897 FILLER_23_57
*898 FILLER_23_61
*899 FILLER_23_82
*900 FILLER_23_86
*901 FILLER_24_124
*902 FILLER_24_136
*903 FILLER_24_141
*904 FILLER_24_15
*905 FILLER_24_161
*906 FILLER_24_173
*907 FILLER_24_177
*908 FILLER_24_187
*909 FILLER_24_195
*910 FILLER_24_206
*911 FILLER_24_227
*912 FILLER_24_251
*913 FILLER_24_27
*914 FILLER_24_29
*915 FILLER_24_3
*916 FILLER_24_48
*917 FILLER_24_59
*918 FILLER_24_71
*919 FILLER_24_83
*920 FILLER_24_95
*921 FILLER_25_103
*922 FILLER_25_113
*923 FILLER_25_131
*924 FILLER_25_15
*925 FILLER_25_154
*926 FILLER_25_166
*927 FILLER_25_212
*928 FILLER_25_220
*929 FILLER_25_225
*930 FILLER_25_23
*931 FILLER_25_244
*932 FILLER_25_3
*933 FILLER_25_35
*934 FILLER_25_43
*935 FILLER_25_52
*936 FILLER_25_57
*937 FILLER_25_67
*938 FILLER_25_79
*939 FILLER_25_91
*940 FILLER_26_101
*941 FILLER_26_119
*942 FILLER_26_131
*943 FILLER_26_139
*944 FILLER_26_141
*945 FILLER_26_15
*946 FILLER_26_150
*947 FILLER_26_156
*948 FILLER_26_177
*949 FILLER_26_189
*950 FILLER_26_195
*951 FILLER_26_197
*952 FILLER_26_209
*953 FILLER_26_221
*954 FILLER_26_233
*955 FILLER_26_245
*956 FILLER_26_251
*957 FILLER_26_27
*958 FILLER_26_29
*959 FILLER_26_3
*960 FILLER_26_41
*961 FILLER_26_72
*962 FILLER_26_81
*963 FILLER_27_104
*964 FILLER_27_113
*965 FILLER_27_117
*966 FILLER_27_15
*967 FILLER_27_163
*968 FILLER_27_167
*969 FILLER_27_186
*970 FILLER_27_198
*971 FILLER_27_210
*972 FILLER_27_220
*973 FILLER_27_238
*974 FILLER_27_246
*975 FILLER_27_27
*976 FILLER_27_3
*977 FILLER_27_39
*978 FILLER_27_47
*979 FILLER_27_55
*980 FILLER_27_65
*981 FILLER_27_71
*982 FILLER_27_92
*983 FILLER_28_100
*984 FILLER_28_139
*985 FILLER_28_15
*986 FILLER_28_161
*987 FILLER_28_169
*988 FILLER_28_191
*989 FILLER_28_195
*990 FILLER_28_197
*991 FILLER_28_207
*992 FILLER_28_249
*993 FILLER_28_27
*994 FILLER_28_3
*995 FILLER_28_49
*996 FILLER_28_79
*997 FILLER_28_85
*998 FILLER_29_102
*999 FILLER_29_116
*1000 FILLER_29_15
*1001 FILLER_29_166
*1002 FILLER_29_178
*1003 FILLER_29_191
*1004 FILLER_29_222
*1005 FILLER_29_225
*1006 FILLER_29_229
*1007 FILLER_29_237
*1008 FILLER_29_246
*1009 FILLER_29_27
*1010 FILLER_29_3
*1011 FILLER_29_44
*1012 FILLER_29_55
*1013 FILLER_29_57
*1014 FILLER_29_63
*1015 FILLER_29_90
*1016 FILLER_2_105
*1017 FILLER_2_113
*1018 FILLER_2_136
*1019 FILLER_2_15
*1020 FILLER_2_161
*1021 FILLER_2_192
*1022 FILLER_2_223
*1023 FILLER_2_27
*1024 FILLER_2_29
*1025 FILLER_2_3
*1026 FILLER_2_41
*1027 FILLER_2_78
*1028 FILLER_2_85
*1029 FILLER_2_93
*1030 FILLER_30_115
*1031 FILLER_30_120
*1032 FILLER_30_132
*1033 FILLER_30_15
*1034 FILLER_30_195
*1035 FILLER_30_197
*1036 FILLER_30_219
*1037 FILLER_30_251
*1038 FILLER_30_27
*1039 FILLER_30_3
*1040 FILLER_30_49
*1041 FILLER_30_63
*1042 FILLER_30_70
*1043 FILLER_30_74
*1044 FILLER_30_85
*1045 FILLER_31_113
*1046 FILLER_31_125
*1047 FILLER_31_137
*1048 FILLER_31_15
*1049 FILLER_31_173
*1050 FILLER_31_181
*1051 FILLER_31_204
*1052 FILLER_31_208
*1053 FILLER_31_223
*1054 FILLER_31_225
*1055 FILLER_31_237
*1056 FILLER_31_249
*1057 FILLER_31_27
*1058 FILLER_31_3
*1059 FILLER_31_39
*1060 FILLER_31_51
*1061 FILLER_31_55
*1062 FILLER_31_57
*1063 FILLER_31_65
*1064 FILLER_32_103
*1065 FILLER_32_115
*1066 FILLER_32_127
*1067 FILLER_32_139
*1068 FILLER_32_141
*1069 FILLER_32_15
*1070 FILLER_32_153
*1071 FILLER_32_161
*1072 FILLER_32_206
*1073 FILLER_32_210
*1074 FILLER_32_237
*1075 FILLER_32_246
*1076 FILLER_32_27
*1077 FILLER_32_29
*1078 FILLER_32_3
*1079 FILLER_32_41
*1080 FILLER_32_53
*1081 FILLER_32_65
*1082 FILLER_32_77
*1083 FILLER_32_83
*1084 FILLER_32_85
*1085 FILLER_32_93
*1086 FILLER_33_101
*1087 FILLER_33_109
*1088 FILLER_33_113
*1089 FILLER_33_136
*1090 FILLER_33_148
*1091 FILLER_33_15
*1092 FILLER_33_160
*1093 FILLER_33_169
*1094 FILLER_33_180
*1095 FILLER_33_192
*1096 FILLER_33_204
*1097 FILLER_33_225
*1098 FILLER_33_229
*1099 FILLER_33_250
*1100 FILLER_33_3
*1101 FILLER_33_77
*1102 FILLER_33_89
*1103 FILLER_34_147
*1104 FILLER_34_175
*1105 FILLER_34_187
*1106 FILLER_34_195
*1107 FILLER_34_197
*1108 FILLER_34_209
*1109 FILLER_34_221
*1110 FILLER_34_245
*1111 FILLER_34_251
*1112 FILLER_34_29
*1113 FILLER_34_3
*1114 FILLER_34_41
*1115 FILLER_34_47
*1116 FILLER_34_54
*1117 FILLER_34_7
*1118 FILLER_34_83
*1119 FILLER_34_85
*1120 FILLER_34_97
*1121 FILLER_35_103
*1122 FILLER_35_113
*1123 FILLER_35_154
*1124 FILLER_35_174
*1125 FILLER_35_182
*1126 FILLER_35_203
*1127 FILLER_35_215
*1128 FILLER_35_223
*1129 FILLER_35_225
*1130 FILLER_35_241
*1131 FILLER_35_249
*1132 FILLER_35_3
*1133 FILLER_35_38
*1134 FILLER_35_50
*1135 FILLER_35_57
*1136 FILLER_35_83
*1137 FILLER_35_95
*1138 FILLER_36_105
*1139 FILLER_36_117
*1140 FILLER_36_122
*1141 FILLER_36_131
*1142 FILLER_36_139
*1143 FILLER_36_141
*1144 FILLER_36_15
*1145 FILLER_36_150
*1146 FILLER_36_157
*1147 FILLER_36_165
*1148 FILLER_36_177
*1149 FILLER_36_183
*1150 FILLER_36_194
*1151 FILLER_36_197
*1152 FILLER_36_209
*1153 FILLER_36_21
*1154 FILLER_36_221
*1155 FILLER_36_233
*1156 FILLER_36_241
*1157 FILLER_36_245
*1158 FILLER_36_29
*1159 FILLER_36_3
*1160 FILLER_36_41
*1161 FILLER_36_49
*1162 FILLER_36_55
*1163 FILLER_36_82
*1164 FILLER_37_110
*1165 FILLER_37_113
*1166 FILLER_37_125
*1167 FILLER_37_137
*1168 FILLER_37_149
*1169 FILLER_37_15
*1170 FILLER_37_161
*1171 FILLER_37_167
*1172 FILLER_37_169
*1173 FILLER_37_173
*1174 FILLER_37_180
*1175 FILLER_37_184
*1176 FILLER_37_190
*1177 FILLER_37_194
*1178 FILLER_37_221
*1179 FILLER_37_225
*1180 FILLER_37_237
*1181 FILLER_37_249
*1182 FILLER_37_3
*1183 FILLER_37_38
*1184 FILLER_37_50
*1185 FILLER_37_57
*1186 FILLER_37_69
*1187 FILLER_37_98
*1188 FILLER_38_111
*1189 FILLER_38_123
*1190 FILLER_38_127
*1191 FILLER_38_139
*1192 FILLER_38_146
*1193 FILLER_38_15
*1194 FILLER_38_158
*1195 FILLER_38_166
*1196 FILLER_38_186
*1197 FILLER_38_194
*1198 FILLER_38_197
*1199 FILLER_38_21
*1200 FILLER_38_220
*1201 FILLER_38_232
*1202 FILLER_38_244
*1203 FILLER_38_25
*1204 FILLER_38_29
*1205 FILLER_38_3
*1206 FILLER_38_41
*1207 FILLER_38_53
*1208 FILLER_38_65
*1209 FILLER_38_77
*1210 FILLER_39_133
*1211 FILLER_39_140
*1212 FILLER_39_15
*1213 FILLER_39_161
*1214 FILLER_39_169
*1215 FILLER_39_194
*1216 FILLER_39_206
*1217 FILLER_39_220
*1218 FILLER_39_225
*1219 FILLER_39_237
*1220 FILLER_39_245
*1221 FILLER_39_27
*1222 FILLER_39_3
*1223 FILLER_39_39
*1224 FILLER_39_51
*1225 FILLER_39_77
*1226 FILLER_39_81
*1227 FILLER_39_85
*1228 FILLER_39_97
*1229 FILLER_3_103
*1230 FILLER_3_111
*1231 FILLER_3_126
*1232 FILLER_3_15
*1233 FILLER_3_157
*1234 FILLER_3_165
*1235 FILLER_3_169
*1236 FILLER_3_173
*1237 FILLER_3_183
*1238 FILLER_3_195
*1239 FILLER_3_221
*1240 FILLER_3_225
*1241 FILLER_3_233
*1242 FILLER_3_241
*1243 FILLER_3_247
*1244 FILLER_3_27
*1245 FILLER_3_3
*1246 FILLER_3_57
*1247 FILLER_3_69
*1248 FILLER_3_91
*1249 FILLER_40_15
*1250 FILLER_40_161
*1251 FILLER_40_165
*1252 FILLER_40_192
*1253 FILLER_40_197
*1254 FILLER_40_223
*1255 FILLER_40_235
*1256 FILLER_40_247
*1257 FILLER_40_251
*1258 FILLER_40_27
*1259 FILLER_40_3
*1260 FILLER_40_49
*1261 FILLER_40_83
*1262 FILLER_40_85
*1263 FILLER_40_97
*1264 FILLER_41_104
*1265 FILLER_41_111
*1266 FILLER_41_143
*1267 FILLER_41_15
*1268 FILLER_41_150
*1269 FILLER_41_163
*1270 FILLER_41_167
*1271 FILLER_41_169
*1272 FILLER_41_177
*1273 FILLER_41_183
*1274 FILLER_41_195
*1275 FILLER_41_221
*1276 FILLER_41_225
*1277 FILLER_41_237
*1278 FILLER_41_249
*1279 FILLER_41_27
*1280 FILLER_41_3
*1281 FILLER_41_36
*1282 FILLER_41_54
*1283 FILLER_41_77
*1284 FILLER_41_98
*1285 FILLER_42_109
*1286 FILLER_42_113
*1287 FILLER_42_123
*1288 FILLER_42_127
*1289 FILLER_42_138
*1290 FILLER_42_141
*1291 FILLER_42_15
*1292 FILLER_42_153
*1293 FILLER_42_165
*1294 FILLER_42_169
*1295 FILLER_42_181
*1296 FILLER_42_193
*1297 FILLER_42_197
*1298 FILLER_42_209
*1299 FILLER_42_219
*1300 FILLER_42_223
*1301 FILLER_42_229
*1302 FILLER_42_241
*1303 FILLER_42_27
*1304 FILLER_42_29
*1305 FILLER_42_3
*1306 FILLER_42_41
*1307 FILLER_42_53
*1308 FILLER_42_57
*1309 FILLER_42_69
*1310 FILLER_42_85
*1311 FILLER_42_97
*1312 FILLER_4_100
*1313 FILLER_4_136
*1314 FILLER_4_15
*1315 FILLER_4_158
*1316 FILLER_4_170
*1317 FILLER_4_187
*1318 FILLER_4_195
*1319 FILLER_4_197
*1320 FILLER_4_207
*1321 FILLER_4_219
*1322 FILLER_4_238
*1323 FILLER_4_250
*1324 FILLER_4_27
*1325 FILLER_4_3
*1326 FILLER_4_55
*1327 FILLER_4_61
*1328 FILLER_4_73
*1329 FILLER_4_83
*1330 FILLER_4_85
*1331 FILLER_4_94
*1332 FILLER_5_111
*1333 FILLER_5_119
*1334 FILLER_5_127
*1335 FILLER_5_149
*1336 FILLER_5_15
*1337 FILLER_5_161
*1338 FILLER_5_167
*1339 FILLER_5_189
*1340 FILLER_5_193
*1341 FILLER_5_220
*1342 FILLER_5_225
*1343 FILLER_5_243
*1344 FILLER_5_251
*1345 FILLER_5_27
*1346 FILLER_5_3
*1347 FILLER_5_54
*1348 FILLER_5_73
*1349 FILLER_5_81
*1350 FILLER_5_86
*1351 FILLER_5_98
*1352 FILLER_6_137
*1353 FILLER_6_141
*1354 FILLER_6_149
*1355 FILLER_6_181
*1356 FILLER_6_193
*1357 FILLER_6_197
*1358 FILLER_6_209
*1359 FILLER_6_221
*1360 FILLER_6_232
*1361 FILLER_6_246
*1362 FILLER_6_29
*1363 FILLER_6_3
*1364 FILLER_6_38
*1365 FILLER_6_54
*1366 FILLER_6_66
*1367 FILLER_6_7
*1368 FILLER_6_83
*1369 FILLER_6_93
*1370 FILLER_7_105
*1371 FILLER_7_113
*1372 FILLER_7_125
*1373 FILLER_7_143
*1374 FILLER_7_152
*1375 FILLER_7_164
*1376 FILLER_7_177
*1377 FILLER_7_198
*1378 FILLER_7_220
*1379 FILLER_7_225
*1380 FILLER_7_247
*1381 FILLER_7_251
*1382 FILLER_7_28
*1383 FILLER_7_3
*1384 FILLER_7_51
*1385 FILLER_7_55
*1386 FILLER_7_57
*1387 FILLER_7_65
*1388 FILLER_7_87
*1389 FILLER_7_99
*1390 FILLER_8_105
*1391 FILLER_8_11
*1392 FILLER_8_116
*1393 FILLER_8_147
*1394 FILLER_8_155
*1395 FILLER_8_178
*1396 FILLER_8_186
*1397 FILLER_8_197
*1398 FILLER_8_205
*1399 FILLER_8_226
*1400 FILLER_8_234
*1401 FILLER_8_246
*1402 FILLER_8_3
*1403 FILLER_8_37
*1404 FILLER_8_63
*1405 FILLER_8_71
*1406 FILLER_8_93
*1407 FILLER_9_120
*1408 FILLER_9_15
*1409 FILLER_9_151
*1410 FILLER_9_163
*1411 FILLER_9_167
*1412 FILLER_9_186
*1413 FILLER_9_190
*1414 FILLER_9_197
*1415 FILLER_9_209
*1416 FILLER_9_215
*1417 FILLER_9_223
*1418 FILLER_9_225
*1419 FILLER_9_249
*1420 FILLER_9_27
*1421 FILLER_9_3
*1422 FILLER_9_39
*1423 FILLER_9_57
*1424 FILLER_9_91
*1425 PHY_EDGE_ROW_0_Left_43
*1426 PHY_EDGE_ROW_0_Right_0
*1427 PHY_EDGE_ROW_10_Left_53
*1428 PHY_EDGE_ROW_10_Right_10
*1429 PHY_EDGE_ROW_11_Left_54
*1430 PHY_EDGE_ROW_11_Right_11
*1431 PHY_EDGE_ROW_12_Left_55
*1432 PHY_EDGE_ROW_12_Right_12
*1433 PHY_EDGE_ROW_13_Left_56
*1434 PHY_EDGE_ROW_13_Right_13
*1435 PHY_EDGE_ROW_14_Left_57
*1436 PHY_EDGE_ROW_14_Right_14
*1437 PHY_EDGE_ROW_15_Left_58
*1438 PHY_EDGE_ROW_15_Right_15
*1439 PHY_EDGE_ROW_16_Left_59
*1440 PHY_EDGE_ROW_16_Right_16
*1441 PHY_EDGE_ROW_17_Left_60
*1442 PHY_EDGE_ROW_17_Right_17
*1443 PHY_EDGE_ROW_18_Left_61
*1444 PHY_EDGE_ROW_18_Right_18
*1445 PHY_EDGE_ROW_19_Left_62
*1446 PHY_EDGE_ROW_19_Right_19
*1447 PHY_EDGE_ROW_1_Left_44
*1448 PHY_EDGE_ROW_1_Right_1
*1449 PHY_EDGE_ROW_20_Left_63
*1450 PHY_EDGE_ROW_20_Right_20
*1451 PHY_EDGE_ROW_21_Left_64
*1452 PHY_EDGE_ROW_21_Right_21
*1453 PHY_EDGE_ROW_22_Left_65
*1454 PHY_EDGE_ROW_22_Right_22
*1455 PHY_EDGE_ROW_23_Left_66
*1456 PHY_EDGE_ROW_23_Right_23
*1457 PHY_EDGE_ROW_24_Left_67
*1458 PHY_EDGE_ROW_24_Right_24
*1459 PHY_EDGE_ROW_25_Left_68
*1460 PHY_EDGE_ROW_25_Right_25
*1461 PHY_EDGE_ROW_26_Left_69
*1462 PHY_EDGE_ROW_26_Right_26
*1463 PHY_EDGE_ROW_27_Left_70
*1464 PHY_EDGE_ROW_27_Right_27
*1465 PHY_EDGE_ROW_28_Left_71
*1466 PHY_EDGE_ROW_28_Right_28
*1467 PHY_EDGE_ROW_29_Left_72
*1468 PHY_EDGE_ROW_29_Right_29
*1469 PHY_EDGE_ROW_2_Left_45
*1470 PHY_EDGE_ROW_2_Right_2
*1471 PHY_EDGE_ROW_30_Left_73
*1472 PHY_EDGE_ROW_30_Right_30
*1473 PHY_EDGE_ROW_31_Left_74
*1474 PHY_EDGE_ROW_31_Right_31
*1475 PHY_EDGE_ROW_32_Left_75
*1476 PHY_EDGE_ROW_32_Right_32
*1477 PHY_EDGE_ROW_33_Left_76
*1478 PHY_EDGE_ROW_33_Right_33
*1479 PHY_EDGE_ROW_34_Left_77
*1480 PHY_EDGE_ROW_34_Right_34
*1481 PHY_EDGE_ROW_35_Left_78
*1482 PHY_EDGE_ROW_35_Right_35
*1483 PHY_EDGE_ROW_36_Left_79
*1484 PHY_EDGE_ROW_36_Right_36
*1485 PHY_EDGE_ROW_37_Left_80
*1486 PHY_EDGE_ROW_37_Right_37
*1487 PHY_EDGE_ROW_38_Left_81
*1488 PHY_EDGE_ROW_38_Right_38
*1489 PHY_EDGE_ROW_39_Left_82
*1490 PHY_EDGE_ROW_39_Right_39
*1491 PHY_EDGE_ROW_3_Left_46
*1492 PHY_EDGE_ROW_3_Right_3
*1493 PHY_EDGE_ROW_40_Left_83
*1494 PHY_EDGE_ROW_40_Right_40
*1495 PHY_EDGE_ROW_41_Left_84
*1496 PHY_EDGE_ROW_41_Right_41
*1497 PHY_EDGE_ROW_42_Left_85
*1498 PHY_EDGE_ROW_42_Right_42
*1499 PHY_EDGE_ROW_4_Left_47
*1500 PHY_EDGE_ROW_4_Right_4
*1501 PHY_EDGE_ROW_5_Left_48
*1502 PHY_EDGE_ROW_5_Right_5
*1503 PHY_EDGE_ROW_6_Left_49
*1504 PHY_EDGE_ROW_6_Right_6
*1505 PHY_EDGE_ROW_7_Left_50
*1506 PHY_EDGE_ROW_7_Right_7
*1507 PHY_EDGE_ROW_8_Left_51
*1508 PHY_EDGE_ROW_8_Right_8
*1509 PHY_EDGE_ROW_9_Left_52
*1510 PHY_EDGE_ROW_9_Right_9
*1511 TAP_TAPCELL_ROW_0_86
*1512 TAP_TAPCELL_ROW_0_87
*1513 TAP_TAPCELL_ROW_0_88
*1514 TAP_TAPCELL_ROW_0_89
*1515 TAP_TAPCELL_ROW_0_90
*1516 TAP_TAPCELL_ROW_0_91
*1517 TAP_TAPCELL_ROW_0_92
*1518 TAP_TAPCELL_ROW_0_93
*1519 TAP_TAPCELL_ROW_10_130
*1520 TAP_TAPCELL_ROW_10_131
*1521 TAP_TAPCELL_ROW_10_132
*1522 TAP_TAPCELL_ROW_10_133
*1523 TAP_TAPCELL_ROW_11_134
*1524 TAP_TAPCELL_ROW_11_135
*1525 TAP_TAPCELL_ROW_11_136
*1526 TAP_TAPCELL_ROW_11_137
*1527 TAP_TAPCELL_ROW_12_138
*1528 TAP_TAPCELL_ROW_12_139
*1529 TAP_TAPCELL_ROW_12_140
*1530 TAP_TAPCELL_ROW_12_141
*1531 TAP_TAPCELL_ROW_13_142
*1532 TAP_TAPCELL_ROW_13_143
*1533 TAP_TAPCELL_ROW_13_144
*1534 TAP_TAPCELL_ROW_13_145
*1535 TAP_TAPCELL_ROW_14_146
*1536 TAP_TAPCELL_ROW_14_147
*1537 TAP_TAPCELL_ROW_14_148
*1538 TAP_TAPCELL_ROW_14_149
*1539 TAP_TAPCELL_ROW_15_150
*1540 TAP_TAPCELL_ROW_15_151
*1541 TAP_TAPCELL_ROW_15_152
*1542 TAP_TAPCELL_ROW_15_153
*1543 TAP_TAPCELL_ROW_16_154
*1544 TAP_TAPCELL_ROW_16_155
*1545 TAP_TAPCELL_ROW_16_156
*1546 TAP_TAPCELL_ROW_16_157
*1547 TAP_TAPCELL_ROW_17_158
*1548 TAP_TAPCELL_ROW_17_159
*1549 TAP_TAPCELL_ROW_17_160
*1550 TAP_TAPCELL_ROW_17_161
*1551 TAP_TAPCELL_ROW_18_162
*1552 TAP_TAPCELL_ROW_18_163
*1553 TAP_TAPCELL_ROW_18_164
*1554 TAP_TAPCELL_ROW_18_165
*1555 TAP_TAPCELL_ROW_19_166
*1556 TAP_TAPCELL_ROW_19_167
*1557 TAP_TAPCELL_ROW_19_168
*1558 TAP_TAPCELL_ROW_19_169
*1559 TAP_TAPCELL_ROW_1_94
*1560 TAP_TAPCELL_ROW_1_95
*1561 TAP_TAPCELL_ROW_1_96
*1562 TAP_TAPCELL_ROW_1_97
*1563 TAP_TAPCELL_ROW_20_170
*1564 TAP_TAPCELL_ROW_20_171
*1565 TAP_TAPCELL_ROW_20_172
*1566 TAP_TAPCELL_ROW_20_173
*1567 TAP_TAPCELL_ROW_21_174
*1568 TAP_TAPCELL_ROW_21_175
*1569 TAP_TAPCELL_ROW_21_176
*1570 TAP_TAPCELL_ROW_21_177
*1571 TAP_TAPCELL_ROW_22_178
*1572 TAP_TAPCELL_ROW_22_179
*1573 TAP_TAPCELL_ROW_22_180
*1574 TAP_TAPCELL_ROW_22_181
*1575 TAP_TAPCELL_ROW_23_182
*1576 TAP_TAPCELL_ROW_23_183
*1577 TAP_TAPCELL_ROW_23_184
*1578 TAP_TAPCELL_ROW_23_185
*1579 TAP_TAPCELL_ROW_24_186
*1580 TAP_TAPCELL_ROW_24_187
*1581 TAP_TAPCELL_ROW_24_188
*1582 TAP_TAPCELL_ROW_24_189
*1583 TAP_TAPCELL_ROW_25_190
*1584 TAP_TAPCELL_ROW_25_191
*1585 TAP_TAPCELL_ROW_25_192
*1586 TAP_TAPCELL_ROW_25_193
*1587 TAP_TAPCELL_ROW_26_194
*1588 TAP_TAPCELL_ROW_26_195
*1589 TAP_TAPCELL_ROW_26_196
*1590 TAP_TAPCELL_ROW_26_197
*1591 TAP_TAPCELL_ROW_27_198
*1592 TAP_TAPCELL_ROW_27_199
*1593 TAP_TAPCELL_ROW_27_200
*1594 TAP_TAPCELL_ROW_27_201
*1595 TAP_TAPCELL_ROW_28_202
*1596 TAP_TAPCELL_ROW_28_203
*1597 TAP_TAPCELL_ROW_28_204
*1598 TAP_TAPCELL_ROW_28_205
*1599 TAP_TAPCELL_ROW_29_206
*1600 TAP_TAPCELL_ROW_29_207
*1601 TAP_TAPCELL_ROW_29_208
*1602 TAP_TAPCELL_ROW_29_209
*1603 TAP_TAPCELL_ROW_2_100
*1604 TAP_TAPCELL_ROW_2_101
*1605 TAP_TAPCELL_ROW_2_98
*1606 TAP_TAPCELL_ROW_2_99
*1607 TAP_TAPCELL_ROW_30_210
*1608 TAP_TAPCELL_ROW_30_211