* NGSPICE file created from spi_adc.ext - technology: sky130A

* Black-box entry subcircuit for sky130_ef_sc_hd__decap_12 abstract view
.subckt sky130_ef_sc_hd__decap_12 VPWR VGND VPB VNB
.ends

* Black-box entry subcircuit for sky130_fd_sc_hd__tapvpwrvgnd_1 abstract view
.subckt sky130_fd_sc_hd__tapvpwrvgnd_1 VGND VPWR
.ends

* Black-box entry subcircuit for sky130_fd_sc_hd__decap_8 abstract view
.subckt sky130_fd_sc_hd__decap_8 VGND VNB VPB VPWR
.ends

* Black-box entry subcircuit for sky130_fd_sc_hd__o21a_1 abstract view
.subckt sky130_fd_sc_hd__o21a_1 A1 A2 B1 VGND VNB VPB VPWR X
.ends

* Black-box entry subcircuit for sky130_fd_sc_hd__mux2_1 abstract view
.subckt sky130_fd_sc_hd__mux2_1 A0 A1 S VGND VNB VPB VPWR X
.ends

* Black-box entry subcircuit for sky130_fd_sc_hd__a21o_1 abstract view
.subckt sky130_fd_sc_hd__a21o_1 A1 A2 B1 VGND VNB VPB VPWR X
.ends

* Black-box entry subcircuit for sky130_fd_sc_hd__inv_2 abstract view
.subckt sky130_fd_sc_hd__inv_2 A VGND VNB VPB VPWR Y
.ends

* Black-box entry subcircuit for sky130_fd_sc_hd__decap_3 abstract view
.subckt sky130_fd_sc_hd__decap_3 VGND VNB VPB VPWR
.ends

* Black-box entry subcircuit for sky130_fd_sc_hd__fill_1 abstract view
.subckt sky130_fd_sc_hd__fill_1 VGND VNB VPB VPWR
.ends

* Black-box entry subcircuit for sky130_fd_sc_hd__and3_1 abstract view
.subckt sky130_fd_sc_hd__and3_1 A B C VGND VNB VPB VPWR X
.ends

* Black-box entry subcircuit for sky130_fd_sc_hd__decap_6 abstract view
.subckt sky130_fd_sc_hd__decap_6 VGND VNB VPB VPWR
.ends

* Black-box entry subcircuit for sky130_fd_sc_hd__conb_1 abstract view
.subckt sky130_fd_sc_hd__conb_1 VGND VNB VPB VPWR HI LO
.ends

* Black-box entry subcircuit for sky130_fd_sc_hd__or2_1 abstract view
.subckt sky130_fd_sc_hd__or2_1 A B VGND VNB VPB VPWR X
.ends

* Black-box entry subcircuit for sky130_fd_sc_hd__dfrtp_1 abstract view
.subckt sky130_fd_sc_hd__dfrtp_1 CLK D RESET_B VGND VNB VPB VPWR Q
.ends

* Black-box entry subcircuit for sky130_fd_sc_hd__dlygate4sd3_1 abstract view
.subckt sky130_fd_sc_hd__dlygate4sd3_1 A VGND VNB VPB VPWR X
.ends

* Black-box entry subcircuit for sky130_fd_sc_hd__decap_4 abstract view
.subckt sky130_fd_sc_hd__decap_4 VGND VNB VPB VPWR
.ends

* Black-box entry subcircuit for sky130_fd_sc_hd__buf_2 abstract view
.subckt sky130_fd_sc_hd__buf_2 A VGND VNB VPB VPWR X
.ends

* Black-box entry subcircuit for sky130_fd_sc_hd__o22a_1 abstract view
.subckt sky130_fd_sc_hd__o22a_1 A1 A2 B1 B2 VGND VNB VPB VPWR X
.ends

* Black-box entry subcircuit for sky130_fd_sc_hd__a22o_1 abstract view
.subckt sky130_fd_sc_hd__a22o_1 A1 A2 B1 B2 VGND VNB VPB VPWR X
.ends

* Black-box entry subcircuit for sky130_fd_sc_hd__fill_2 abstract view
.subckt sky130_fd_sc_hd__fill_2 VGND VNB VPB VPWR
.ends

* Black-box entry subcircuit for sky130_fd_sc_hd__clkbuf_16 abstract view
.subckt sky130_fd_sc_hd__clkbuf_16 A VGND VNB VPB VPWR X
.ends

* Black-box entry subcircuit for sky130_fd_sc_hd__and2_1 abstract view
.subckt sky130_fd_sc_hd__and2_1 A B VGND VNB VPB VPWR X
.ends

* Black-box entry subcircuit for sky130_fd_sc_hd__o221a_1 abstract view
.subckt sky130_fd_sc_hd__o221a_1 A1 A2 B1 B2 C1 VGND VNB VPB VPWR X
.ends

* Black-box entry subcircuit for sky130_fd_sc_hd__nand3_1 abstract view
.subckt sky130_fd_sc_hd__nand3_1 A B C VGND VNB VPB VPWR Y
.ends

* Black-box entry subcircuit for sky130_fd_sc_hd__a31o_1 abstract view
.subckt sky130_fd_sc_hd__a31o_1 A1 A2 A3 B1 VGND VNB VPB VPWR X
.ends

* Black-box entry subcircuit for sky130_fd_sc_hd__dfrtp_2 abstract view
.subckt sky130_fd_sc_hd__dfrtp_2 CLK D RESET_B VGND VNB VPB VPWR Q
.ends

* Black-box entry subcircuit for sky130_fd_sc_hd__nand2_1 abstract view
.subckt sky130_fd_sc_hd__nand2_1 A B VGND VNB VPB VPWR Y
.ends

* Black-box entry subcircuit for sky130_fd_sc_hd__o31ai_1 abstract view
.subckt sky130_fd_sc_hd__o31ai_1 A1 A2 A3 B1 VGND VNB VPB VPWR Y
.ends

* Black-box entry subcircuit for sky130_fd_sc_hd__inv_6 abstract view
.subckt sky130_fd_sc_hd__inv_6 A VGND VNB VPB VPWR Y
.ends

* Black-box entry subcircuit for sky130_fd_sc_hd__buf_1 abstract view
.subckt sky130_fd_sc_hd__buf_1 A VGND VNB VPB VPWR X
.ends

* Black-box entry subcircuit for sky130_fd_sc_hd__a32o_1 abstract view
.subckt sky130_fd_sc_hd__a32o_1 A1 A2 A3 B1 B2 VGND VNB VPB VPWR X
.ends

* Black-box entry subcircuit for sky130_fd_sc_hd__inv_8 abstract view
.subckt sky130_fd_sc_hd__inv_8 A VGND VNB VPB VPWR Y
.ends

* Black-box entry subcircuit for sky130_fd_sc_hd__and2b_1 abstract view
.subckt sky130_fd_sc_hd__and2b_1 A_N B VGND VNB VPB VPWR X
.ends

* Black-box entry subcircuit for sky130_fd_sc_hd__o211a_1 abstract view
.subckt sky130_fd_sc_hd__o211a_1 A1 A2 B1 C1 VGND VNB VPB VPWR X
.ends

* Black-box entry subcircuit for sky130_fd_sc_hd__clkbuf_4 abstract view
.subckt sky130_fd_sc_hd__clkbuf_4 A VGND VNB VPB VPWR X
.ends

* Black-box entry subcircuit for sky130_fd_sc_hd__mux2_2 abstract view
.subckt sky130_fd_sc_hd__mux2_2 A0 A1 S VGND VNB VPB VPWR X
.ends

* Black-box entry subcircuit for sky130_fd_sc_hd__nor3_1 abstract view
.subckt sky130_fd_sc_hd__nor3_1 A B C VGND VNB VPB VPWR Y
.ends

* Black-box entry subcircuit for sky130_fd_sc_hd__or2_2 abstract view
.subckt sky130_fd_sc_hd__or2_2 A B VGND VNB VPB VPWR X
.ends

* Black-box entry subcircuit for sky130_fd_sc_hd__clkbuf_2 abstract view
.subckt sky130_fd_sc_hd__clkbuf_2 A VGND VNB VPB VPWR X
.ends

* Black-box entry subcircuit for sky130_fd_sc_hd__or4_1 abstract view
.subckt sky130_fd_sc_hd__or4_1 A B C D VGND VNB VPB VPWR X
.ends

* Black-box entry subcircuit for sky130_fd_sc_hd__a21oi_1 abstract view
.subckt sky130_fd_sc_hd__a21oi_1 A1 A2 B1 VGND VNB VPB VPWR Y
.ends

* Black-box entry subcircuit for sky130_fd_sc_hd__clkinv_4 abstract view
.subckt sky130_fd_sc_hd__clkinv_4 A VGND VNB VPB VPWR Y
.ends

* Black-box entry subcircuit for sky130_fd_sc_hd__nand2b_1 abstract view
.subckt sky130_fd_sc_hd__nand2b_1 A_N B VGND VNB VPB VPWR Y
.ends

* Black-box entry subcircuit for sky130_fd_sc_hd__o21bai_4 abstract view
.subckt sky130_fd_sc_hd__o21bai_4 A1 A2 B1_N VGND VNB VPB VPWR Y
.ends

* Black-box entry subcircuit for sky130_fd_sc_hd__a21bo_1 abstract view
.subckt sky130_fd_sc_hd__a21bo_1 A1 A2 B1_N VGND VNB VPB VPWR X
.ends

* Black-box entry subcircuit for sky130_fd_sc_hd__or4b_1 abstract view
.subckt sky130_fd_sc_hd__or4b_1 A B C D_N VGND VNB VPB VPWR X
.ends

* Black-box entry subcircuit for sky130_fd_sc_hd__or3b_1 abstract view
.subckt sky130_fd_sc_hd__or3b_1 A B C_N VGND VNB VPB VPWR X
.ends

* Black-box entry subcircuit for sky130_fd_sc_hd__nor2_1 abstract view
.subckt sky130_fd_sc_hd__nor2_1 A B VGND VNB VPB VPWR Y
.ends

* Black-box entry subcircuit for sky130_fd_sc_hd__a22oi_1 abstract view
.subckt sky130_fd_sc_hd__a22oi_1 A1 A2 B1 B2 VGND VNB VPB VPWR Y
.ends

* Black-box entry subcircuit for sky130_fd_sc_hd__a21boi_1 abstract view
.subckt sky130_fd_sc_hd__a21boi_1 A1 A2 B1_N VGND VNB VPB VPWR Y
.ends

* Black-box entry subcircuit for sky130_fd_sc_hd__dlymetal6s2s_1 abstract view
.subckt sky130_fd_sc_hd__dlymetal6s2s_1 A VGND VNB VPB VPWR X
.ends

* Black-box entry subcircuit for sky130_fd_sc_hd__a2bb2o_1 abstract view
.subckt sky130_fd_sc_hd__a2bb2o_1 A1_N A2_N B1 B2 VGND VNB VPB VPWR X
.ends

* Black-box entry subcircuit for sky130_fd_sc_hd__clkbuf_1 abstract view
.subckt sky130_fd_sc_hd__clkbuf_1 A VGND VNB VPB VPWR X
.ends

* Black-box entry subcircuit for sky130_fd_sc_hd__nor2_4 abstract view
.subckt sky130_fd_sc_hd__nor2_4 A B VGND VNB VPB VPWR Y
.ends

* Black-box entry subcircuit for sky130_fd_sc_hd__nor2_2 abstract view
.subckt sky130_fd_sc_hd__nor2_2 A B VGND VNB VPB VPWR Y
.ends

* Black-box entry subcircuit for sky130_fd_sc_hd__and3b_1 abstract view
.subckt sky130_fd_sc_hd__and3b_1 A_N B C VGND VNB VPB VPWR X
.ends

* Black-box entry subcircuit for sky130_fd_sc_hd__a211o_1 abstract view
.subckt sky130_fd_sc_hd__a211o_1 A1 A2 B1 C1 VGND VNB VPB VPWR X
.ends

* Black-box entry subcircuit for sky130_fd_sc_hd__o311a_1 abstract view
.subckt sky130_fd_sc_hd__o311a_1 A1 A2 A3 B1 C1 VGND VNB VPB VPWR X
.ends

* Black-box entry subcircuit for sky130_fd_sc_hd__ebufn_8 abstract view
.subckt sky130_fd_sc_hd__ebufn_8 A TE_B VGND VNB VPB VPWR Z
.ends

* Black-box entry subcircuit for sky130_fd_sc_hd__dfrtp_4 abstract view
.subckt sky130_fd_sc_hd__dfrtp_4 CLK D RESET_B VGND VNB VPB VPWR Q
.ends

* Black-box entry subcircuit for sky130_fd_sc_hd__nor3b_2 abstract view
.subckt sky130_fd_sc_hd__nor3b_2 A B C_N VGND VNB VPB VPWR Y
.ends

* Black-box entry subcircuit for sky130_fd_sc_hd__o21ai_1 abstract view
.subckt sky130_fd_sc_hd__o21ai_1 A1 A2 B1 VGND VNB VPB VPWR Y
.ends

* Black-box entry subcircuit for sky130_fd_sc_hd__o21ba_1 abstract view
.subckt sky130_fd_sc_hd__o21ba_1 A1 A2 B1_N VGND VNB VPB VPWR X
.ends

* Black-box entry subcircuit for sky130_fd_sc_hd__or4b_2 abstract view
.subckt sky130_fd_sc_hd__or4b_2 A B C D_N VGND VNB VPB VPWR X
.ends

* Black-box entry subcircuit for sky130_fd_sc_hd__and4b_1 abstract view
.subckt sky130_fd_sc_hd__and4b_1 A_N B C D VGND VNB VPB VPWR X
.ends

* Black-box entry subcircuit for sky130_fd_sc_hd__xnor2_1 abstract view
.subckt sky130_fd_sc_hd__xnor2_1 A B VGND VNB VPB VPWR Y
.ends

* Black-box entry subcircuit for sky130_fd_sc_hd__and4b_2 abstract view
.subckt sky130_fd_sc_hd__and4b_2 A_N B C D VGND VNB VPB VPWR X
.ends

* Black-box entry subcircuit for sky130_fd_sc_hd__a211oi_1 abstract view
.subckt sky130_fd_sc_hd__a211oi_1 A1 A2 B1 C1 VGND VNB VPB VPWR Y
.ends

* Black-box entry subcircuit for sky130_fd_sc_hd__nand2b_2 abstract view
.subckt sky130_fd_sc_hd__nand2b_2 A_N B VGND VNB VPB VPWR Y
.ends

* Black-box entry subcircuit for sky130_fd_sc_hd__and4_1 abstract view
.subckt sky130_fd_sc_hd__and4_1 A B C D VGND VNB VPB VPWR X
.ends

* Black-box entry subcircuit for sky130_fd_sc_hd__dfstp_1 abstract view
.subckt sky130_fd_sc_hd__dfstp_1 CLK D SET_B VGND VNB VPB VPWR Q
.ends

.subckt spi_adc VGND VPWR adc_clk_out comparator cs dac[0] dac[10] dac[11] dac[1]
+ dac[2] dac[3] dac[4] dac[5] dac[6] dac[7] dac[8] dac[9] dac_rst irq miso mosi pwr_gate
+ reset_ sample_and_hold sck sys_clk vref_sel
XFILLER_22_155 VPWR VGND VPWR VGND sky130_ef_sc_hd__decap_12
XTAP_TAPCELL_ROW_9_126 VGND VPWR sky130_fd_sc_hd__tapvpwrvgnd_1
XFILLER_26_74 VGND VGND VPWR VPWR sky130_fd_sc_hd__decap_8
XFILLER_26_85 VPWR VGND VPWR VGND sky130_ef_sc_hd__decap_12
X_432_ u_spi.miso_buffer\[7\] net31 _205_ VGND VGND VPWR VPWR _230_ sky130_fd_sc_hd__o21a_1
X_501_ adc_data_out\[8\] _254_ net24 VGND VGND VPWR VPWR _101_ sky130_fd_sc_hd__mux2_1
X_363_ u_controller.counter_reg\[3\] net35 u_controller.dac_reg\[3\] VGND VGND VPWR
+ VPWR net12 sky130_fd_sc_hd__a21o_1
XTAP_TAPCELL_ROW_23_183 VGND VPWR sky130_fd_sc_hd__tapvpwrvgnd_1
X_294_ u_spi.pay\[10\] VGND VGND VPWR VPWR _146_ sky130_fd_sc_hd__inv_2
XTAP_TAPCELL_ROW_29_209 VGND VPWR sky130_fd_sc_hd__tapvpwrvgnd_1
XFILLER_42_217 VGND VGND VPWR VPWR sky130_fd_sc_hd__decap_3
X_415_ net97 net32 _217_ VGND VGND VPWR VPWR _056_ sky130_fd_sc_hd__o21a_1
XFILLER_33_239 VGND VGND VPWR VPWR sky130_fd_sc_hd__fill_1
X_346_ _172_ _175_ _176_ VGND VGND VPWR VPWR _023_ sky130_fd_sc_hd__and3_1
XFILLER_24_217 VPWR VGND VPWR VGND sky130_ef_sc_hd__decap_12
XFILLER_15_217 VGND VGND VPWR VPWR sky130_fd_sc_hd__decap_6
XFILLER_23_53 VGND VGND VPWR VPWR sky130_fd_sc_hd__decap_3
X_606__70 VGND VGND VPWR VPWR _606__70/HI net70 sky130_fd_sc_hd__conb_1
XFILLER_0_57 VPWR VGND VPWR VGND sky130_ef_sc_hd__decap_12
XTAP_TAPCELL_ROW_31_215 VGND VPWR sky130_fd_sc_hd__tapvpwrvgnd_1
X_329_ clk_cnt\[4\] clk_cnt\[5\] VGND VGND VPWR VPWR _162_ sky130_fd_sc_hd__or2_1
X_603__73 VGND VGND VPWR VPWR _603__73/HI net73 sky130_fd_sc_hd__conb_1
X_680_ clknet_3_2__leaf_sys_clk _039_ net55 VGND VGND VPWR VPWR u_spi.data_reg\[2\]
+ sky130_fd_sc_hd__dfrtp_1
XFILLER_34_41 VGND VGND VPWR VPWR sky130_fd_sc_hd__decap_8
XFILLER_38_117 VGND VGND VPWR VPWR sky130_fd_sc_hd__fill_1
X_600__76 VGND VGND VPWR VPWR _600__76/HI net76 sky130_fd_sc_hd__conb_1
Xhold41 u_spi.bit_cnt\[3\] VGND VGND VPWR VPWR net129 sky130_fd_sc_hd__dlygate4sd3_1
Xhold30 u_spi.data_reg\[1\] VGND VGND VPWR VPWR net118 sky130_fd_sc_hd__dlygate4sd3_1
X_663_ clknet_3_1__leaf_sys_clk _117_ net53 VGND VGND VPWR VPWR u_spi.addr\[0\] sky130_fd_sc_hd__dfrtp_1
XFILLER_28_161 VGND VGND VPWR VPWR sky130_fd_sc_hd__decap_4
X_594_ clknet_3_5__leaf_sys_clk net82 net60 VGND VGND VPWR VPWR clk_cnt\[14\] sky130_fd_sc_hd__dfrtp_1
XFILLER_6_56 VGND VGND VPWR VPWR sky130_fd_sc_hd__fill_1
XFILLER_13_3 VPWR VGND VPWR VGND sky130_ef_sc_hd__decap_12
XPHY_EDGE_ROW_16_Left_59 VGND VGND VPWR VPWR sky130_fd_sc_hd__decap_3
XFILLER_34_197 VGND VGND VPWR VPWR sky130_fd_sc_hd__decap_6
Xoutput20 net20 VGND VGND VPWR VPWR irq sky130_fd_sc_hd__buf_2
Xoutput7 net7 VGND VGND VPWR VPWR dac[0] sky130_fd_sc_hd__buf_2
XFILLER_31_64 VPWR VGND VPWR VGND sky130_ef_sc_hd__decap_12
X_577_ clknet_3_2__leaf_sys_clk net89 net55 VGND VGND VPWR VPWR u_spi.eoc_s2 sky130_fd_sc_hd__dfrtp_1
XFILLER_16_120 VPWR VGND VPWR VGND sky130_ef_sc_hd__decap_12
XFILLER_16_197 VGND VGND VPWR VPWR sky130_fd_sc_hd__decap_4
X_646_ net49 _101_ net43 VGND VGND VPWR VPWR adc_data_out\[8\] sky130_fd_sc_hd__dfrtp_1
XFILLER_39_245 VGND VGND VPWR VPWR sky130_fd_sc_hd__decap_3
XFILLER_22_167 VGND VGND VPWR VPWR sky130_fd_sc_hd__decap_6
XTAP_TAPCELL_ROW_9_127 VGND VPWR sky130_fd_sc_hd__tapvpwrvgnd_1
X_500_ adc_data_out\[7\] _253_ net24 VGND VGND VPWR VPWR _100_ sky130_fd_sc_hd__mux2_1
X_362_ u_controller.counter_reg\[2\] net35 u_controller.dac_reg\[2\] VGND VGND VPWR
+ VPWR net11 sky130_fd_sc_hd__a21o_1
X_431_ net100 net32 _227_ _229_ VGND VGND VPWR VPWR _060_ sky130_fd_sc_hd__o22a_1
XFILLER_26_97 VGND VGND VPWR VPWR sky130_fd_sc_hd__decap_4
XFILLER_42_85 VGND VGND VPWR VPWR sky130_fd_sc_hd__decap_3
XFILLER_42_41 VPWR VGND VPWR VGND sky130_ef_sc_hd__decap_12
XTAP_TAPCELL_ROW_23_184 VGND VPWR sky130_fd_sc_hd__tapvpwrvgnd_1
X_293_ u_spi.pay\[9\] VGND VGND VPWR VPWR _145_ sky130_fd_sc_hd__inv_2
X_629_ net48 _084_ net42 VGND VGND VPWR VPWR u_controller.counter_reg\[3\] sky130_fd_sc_hd__dfrtp_1
XFILLER_36_237 VGND VGND VPWR VPWR sky130_fd_sc_hd__decap_4
XFILLER_27_215 VGND VGND VPWR VPWR sky130_fd_sc_hd__decap_8
XPHY_EDGE_ROW_19_Left_62 VGND VGND VPWR VPWR sky130_fd_sc_hd__decap_3
XFILLER_18_237 VGND VGND VPWR VPWR sky130_fd_sc_hd__fill_1
XFILLER_37_52 VGND VGND VPWR VPWR sky130_fd_sc_hd__fill_1
X_414_ net26 _215_ _216_ net27 VGND VGND VPWR VPWR _217_ sky130_fd_sc_hd__a22o_1
X_345_ clk_cnt\[1\] clk_cnt\[0\] clk_cnt\[2\] VGND VGND VPWR VPWR _176_ sky130_fd_sc_hd__a21o_1
XFILLER_24_229 VGND VGND VPWR VPWR sky130_fd_sc_hd__decap_3
XPHY_EDGE_ROW_12_Right_12 VGND VGND VPWR VPWR sky130_fd_sc_hd__decap_3
XTAP_TAPCELL_ROW_2_100 VGND VPWR sky130_fd_sc_hd__tapvpwrvgnd_1
XPHY_EDGE_ROW_21_Right_21 VGND VGND VPWR VPWR sky130_fd_sc_hd__decap_3
XPHY_EDGE_ROW_4_Left_47 VGND VGND VPWR VPWR sky130_fd_sc_hd__decap_3
XPHY_EDGE_ROW_30_Right_30 VGND VGND VPWR VPWR sky130_fd_sc_hd__decap_3
XFILLER_0_69 VGND VGND VPWR VPWR sky130_fd_sc_hd__decap_4
XTAP_TAPCELL_ROW_31_216 VGND VPWR sky130_fd_sc_hd__tapvpwrvgnd_1
X_328_ clk_cnt\[5\] clk_cnt\[6\] clk_cnt\[7\] VGND VGND VPWR VPWR _161_ sky130_fd_sc_hd__a21o_1
XTAP_TAPCELL_ROW_0_90 VGND VPWR sky130_fd_sc_hd__tapvpwrvgnd_1
XFILLER_7_225 VGND VGND VPWR VPWR sky130_fd_sc_hd__decap_6
XFILLER_34_75 VGND VGND VPWR VPWR sky130_fd_sc_hd__decap_8
Xhold20 u_spi.bit_cnt\[2\] VGND VGND VPWR VPWR net108 sky130_fd_sc_hd__dlygate4sd3_1
Xhold42 bit_int_en VGND VGND VPWR VPWR net130 sky130_fd_sc_hd__dlygate4sd3_1
X_662_ clknet_3_4__leaf_sys_clk _116_ net57 VGND VGND VPWR VPWR u_spi.pay\[11\] sky130_fd_sc_hd__dfrtp_1
Xhold31 ctrl_reg\[11\] VGND VGND VPWR VPWR net119 sky130_fd_sc_hd__dlygate4sd3_1
X_593_ clknet_3_5__leaf_sys_clk net83 net60 VGND VGND VPWR VPWR clk_cnt\[13\] sky130_fd_sc_hd__dfrtp_1
XFILLER_28_195 VGND VGND VPWR VPWR sky130_fd_sc_hd__fill_1
XPHY_EDGE_ROW_7_Left_50 VGND VGND VPWR VPWR sky130_fd_sc_hd__decap_3
XFILLER_19_140 VGND VGND VPWR VPWR sky130_fd_sc_hd__fill_2
XFILLER_19_195 VPWR VGND VPWR VGND sky130_ef_sc_hd__decap_12
XPHY_EDGE_ROW_6_Right_6 VGND VGND VPWR VPWR sky130_fd_sc_hd__decap_3
Xclkbuf_3_7__f_sys_clk clknet_0_sys_clk VGND VGND VPWR VPWR clknet_3_7__leaf_sys_clk
+ sky130_fd_sc_hd__clkbuf_16
XFILLER_25_121 VPWR VGND VPWR VGND sky130_ef_sc_hd__decap_12
XFILLER_31_76 VGND VGND VPWR VPWR sky130_fd_sc_hd__decap_4
Xoutput21 net21 VGND VGND VPWR VPWR pwr_gate sky130_fd_sc_hd__buf_2
XFILLER_0_242 VGND VGND VPWR VPWR sky130_fd_sc_hd__fill_2
Xoutput10 net10 VGND VGND VPWR VPWR dac[1] sky130_fd_sc_hd__buf_2
Xoutput8 net8 VGND VGND VPWR VPWR dac[10] sky130_fd_sc_hd__buf_2
XPHY_EDGE_ROW_33_Left_76 VGND VGND VPWR VPWR sky130_fd_sc_hd__decap_3
XFILLER_16_132 VGND VGND VPWR VPWR sky130_fd_sc_hd__fill_1
X_645_ net49 _100_ net44 VGND VGND VPWR VPWR adc_data_out\[7\] sky130_fd_sc_hd__dfrtp_1
X_576_ net47 _066_ net41 VGND VGND VPWR VPWR u_controller.state\[1\] sky130_fd_sc_hd__dfrtp_1
XFILLER_16_154 VGND VGND VPWR VPWR sky130_fd_sc_hd__fill_1
XFILLER_31_113 VPWR VGND VPWR VGND sky130_ef_sc_hd__decap_12
XFILLER_31_157 VGND VGND VPWR VPWR sky130_fd_sc_hd__decap_3
XTAP_TAPCELL_ROW_17_160 VGND VPWR sky130_fd_sc_hd__tapvpwrvgnd_1
XTAP_TAPCELL_ROW_9_128 VGND VPWR sky130_fd_sc_hd__tapvpwrvgnd_1
XFILLER_42_53 VGND VGND VPWR VPWR sky130_fd_sc_hd__decap_3
X_361_ u_controller.counter_reg\[1\] net35 u_controller.dac_reg\[1\] VGND VGND VPWR
+ VPWR net10 sky130_fd_sc_hd__a21o_1
X_430_ net27 _228_ VGND VGND VPWR VPWR _229_ sky130_fd_sc_hd__and2_1
X_292_ u_spi.pay\[8\] VGND VGND VPWR VPWR _144_ sky130_fd_sc_hd__inv_2
XFILLER_26_54 VGND VGND VPWR VPWR sky130_fd_sc_hd__fill_2
XTAP_TAPCELL_ROW_23_185 VGND VPWR sky130_fd_sc_hd__tapvpwrvgnd_1
X_628_ net48 _083_ net42 VGND VGND VPWR VPWR u_controller.counter_reg\[2\] sky130_fd_sc_hd__dfrtp_1
X_559_ clknet_3_4__leaf_sys_clk _049_ net57 VGND VGND VPWR VPWR ctrl_reg\[8\] sky130_fd_sc_hd__dfrtp_1
XFILLER_10_127 VGND VGND VPWR VPWR sky130_fd_sc_hd__fill_2
X_413_ u_spi.pay\[1\] net23 _198_ u_spi.data_reg\[3\] _207_ VGND VGND VPWR VPWR _216_
+ sky130_fd_sc_hd__o221a_1
X_344_ clk_cnt\[1\] clk_cnt\[0\] clk_cnt\[2\] VGND VGND VPWR VPWR _175_ sky130_fd_sc_hd__nand3_1
XPHY_EDGE_ROW_20_Left_63 VGND VGND VPWR VPWR sky130_fd_sc_hd__decap_3
XFILLER_32_241 VGND VGND VPWR VPWR sky130_fd_sc_hd__decap_8
XTAP_TAPCELL_ROW_2_101 VGND VPWR sky130_fd_sc_hd__tapvpwrvgnd_1
XFILLER_3_3 VPWR VGND VPWR VGND sky130_ef_sc_hd__decap_12
XFILLER_0_15 VGND VGND VPWR VPWR sky130_fd_sc_hd__decap_3
XFILLER_9_68 VGND VGND VPWR VPWR sky130_fd_sc_hd__fill_2
XFILLER_9_57 VGND VGND VPWR VPWR sky130_fd_sc_hd__decap_4
XTAP_TAPCELL_ROW_31_217 VGND VPWR sky130_fd_sc_hd__tapvpwrvgnd_1
X_327_ clk_cnt\[1\] clk_cnt\[3\] clk_cnt\[2\] _159_ VGND VGND VPWR VPWR _160_ sky130_fd_sc_hd__a31o_1
XTAP_TAPCELL_ROW_0_91 VGND VPWR sky130_fd_sc_hd__tapvpwrvgnd_1
XFILLER_36_3 VPWR VGND VPWR VGND sky130_ef_sc_hd__decap_12
XFILLER_18_55 VGND VGND VPWR VPWR sky130_fd_sc_hd__decap_8
XFILLER_11_200 VGND VGND VPWR VPWR sky130_fd_sc_hd__decap_3
XFILLER_11_222 VGND VGND VPWR VPWR sky130_fd_sc_hd__fill_2
Xhold10 u_spi.miso_buffer\[4\] VGND VGND VPWR VPWR net98 sky130_fd_sc_hd__dlygate4sd3_1
Xhold43 _132_ VGND VGND VPWR VPWR net131 sky130_fd_sc_hd__dlygate4sd3_1
Xhold32 _052_ VGND VGND VPWR VPWR net120 sky130_fd_sc_hd__dlygate4sd3_1
Xhold21 ctrl_reg\[7\] VGND VGND VPWR VPWR net109 sky130_fd_sc_hd__dlygate4sd3_1
X_661_ clknet_3_4__leaf_sys_clk _115_ net57 VGND VGND VPWR VPWR u_spi.pay\[10\] sky130_fd_sc_hd__dfrtp_1
XFILLER_28_141 VGND VGND VPWR VPWR sky130_fd_sc_hd__decap_4
X_592_ clknet_3_5__leaf_sys_clk net84 net60 VGND VGND VPWR VPWR clk_cnt\[12\] sky130_fd_sc_hd__dfrtp_1
XFILLER_15_23 VGND VGND VPWR VPWR sky130_fd_sc_hd__fill_2
XFILLER_15_78 VPWR VGND VPWR VGND sky130_ef_sc_hd__decap_12
XFILLER_25_111 VGND VGND VPWR VPWR sky130_fd_sc_hd__fill_1
XFILLER_25_133 VPWR VGND VPWR VGND sky130_ef_sc_hd__decap_12
XFILLER_25_166 VGND VGND VPWR VPWR sky130_fd_sc_hd__fill_2
XFILLER_31_55 VGND VGND VPWR VPWR sky130_fd_sc_hd__fill_1
Xoutput11 net11 VGND VGND VPWR VPWR dac[2] sky130_fd_sc_hd__buf_2
XFILLER_0_221 VGND VGND VPWR VPWR sky130_fd_sc_hd__decap_3
Xoutput9 net9 VGND VGND VPWR VPWR dac[11] sky130_fd_sc_hd__buf_2
Xoutput22 net22 VGND VGND VPWR VPWR sample_and_hold sky130_fd_sc_hd__buf_2
X_575_ net47 _065_ net41 VGND VGND VPWR VPWR u_controller.state\[0\] sky130_fd_sc_hd__dfrtp_2
X_644_ net51 _099_ net44 VGND VGND VPWR VPWR adc_data_out\[6\] sky130_fd_sc_hd__dfrtp_1
XTAP_TAPCELL_ROW_26_194 VGND VPWR sky130_fd_sc_hd__tapvpwrvgnd_1
XFILLER_31_125 VPWR VGND VPWR VGND sky130_ef_sc_hd__decap_12
XFILLER_31_169 VGND VGND VPWR VPWR sky130_fd_sc_hd__fill_1
XFILLER_39_225 VPWR VGND VPWR VGND sky130_ef_sc_hd__decap_12
XTAP_TAPCELL_ROW_17_161 VGND VPWR sky130_fd_sc_hd__tapvpwrvgnd_1
XTAP_TAPCELL_ROW_9_129 VGND VPWR sky130_fd_sc_hd__tapvpwrvgnd_1
XFILLER_9_118 VGND VGND VPWR VPWR sky130_fd_sc_hd__fill_1
X_360_ u_controller.counter_reg\[0\] net35 u_controller.dac_reg\[0\] VGND VGND VPWR
+ VPWR net7 sky130_fd_sc_hd__a21o_1
X_291_ u_spi.pay\[7\] VGND VGND VPWR VPWR _143_ sky130_fd_sc_hd__inv_2
XFILLER_3_15 VPWR VGND VPWR VGND sky130_ef_sc_hd__decap_12
X_627_ net48 _082_ net41 VGND VGND VPWR VPWR u_controller.counter_reg\[1\] sky130_fd_sc_hd__dfrtp_1
X_558_ clknet_3_6__leaf_sys_clk _048_ net57 VGND VGND VPWR VPWR ctrl_reg\[7\] sky130_fd_sc_hd__dfrtp_1
X_489_ u_controller.counter_reg\[10\] net37 net25 u_controller.counter_reg\[9\] VGND
+ VGND VPWR VPWR _090_ sky130_fd_sc_hd__a22o_1
XFILLER_42_209 VGND VGND VPWR VPWR sky130_fd_sc_hd__decap_8
XFILLER_10_139 VGND VGND VPWR VPWR sky130_fd_sc_hd__fill_1
XFILLER_12_68 VGND VGND VPWR VPWR sky130_fd_sc_hd__fill_1
XTAP_TAPCELL_ROW_5_110 VGND VPWR sky130_fd_sc_hd__tapvpwrvgnd_1
X_412_ u_spi.miso_buffer\[2\] net31 VGND VGND VPWR VPWR _215_ sky130_fd_sc_hd__or2_1
XTAP_TAPCELL_ROW_11_134 VGND VPWR sky130_fd_sc_hd__tapvpwrvgnd_1
X_343_ _172_ _173_ _174_ VGND VGND VPWR VPWR _012_ sky130_fd_sc_hd__and3_1
XFILLER_32_231 VGND VGND VPWR VPWR sky130_fd_sc_hd__decap_4
XTAP_TAPCELL_ROW_34_226 VGND VPWR sky130_fd_sc_hd__tapvpwrvgnd_1
XFILLER_9_36 VPWR VGND VPWR VGND sky130_ef_sc_hd__decap_12
X_326_ bit_clk_sel clk_cnt\[5\] clk_cnt\[7\] clk_cnt\[4\] VGND VGND VPWR VPWR _159_
+ sky130_fd_sc_hd__o22a_1
XTAP_TAPCELL_ROW_0_92 VGND VPWR sky130_fd_sc_hd__tapvpwrvgnd_1
XFILLER_29_3 VPWR VGND VPWR VGND sky130_ef_sc_hd__decap_12
XFILLER_34_88 VGND VGND VPWR VPWR sky130_fd_sc_hd__fill_1
XFILLER_7_238 VPWR VGND VPWR VGND sky130_ef_sc_hd__decap_12
X_309_ adc_data_out\[2\] net111 net34 VGND VGND VPWR VPWR _039_ sky130_fd_sc_hd__mux2_1
XFILLER_37_120 VGND VGND VPWR VPWR sky130_fd_sc_hd__decap_4
Xhold22 u_spi.data_reg\[6\] VGND VGND VPWR VPWR net110 sky130_fd_sc_hd__dlygate4sd3_1
Xhold11 u_spi.miso_buffer\[9\] VGND VGND VPWR VPWR net99 sky130_fd_sc_hd__dlygate4sd3_1
X_660_ clknet_3_4__leaf_sys_clk _114_ net57 VGND VGND VPWR VPWR u_spi.pay\[9\] sky130_fd_sc_hd__dfrtp_1
Xhold33 ctrl_reg\[9\] VGND VGND VPWR VPWR net121 sky130_fd_sc_hd__dlygate4sd3_1
XFILLER_28_197 VGND VGND VPWR VPWR sky130_fd_sc_hd__decap_8
XFILLER_29_55 VGND VGND VPWR VPWR sky130_fd_sc_hd__fill_1
X_591_ clknet_3_5__leaf_sys_clk net85 net60 VGND VGND VPWR VPWR clk_cnt\[11\] sky130_fd_sc_hd__dfrtp_1
Xhold44 u_spi.data_reg\[11\] VGND VGND VPWR VPWR net132 sky130_fd_sc_hd__dlygate4sd3_1
XFILLER_6_15 VGND VGND VPWR VPWR sky130_fd_sc_hd__decap_4
XFILLER_15_46 VGND VGND VPWR VPWR sky130_fd_sc_hd__fill_1
XFILLER_15_57 VGND VGND VPWR VPWR sky130_fd_sc_hd__fill_1
XFILLER_25_145 VGND VGND VPWR VPWR sky130_fd_sc_hd__fill_1
Xoutput23 net23 VGND VGND VPWR VPWR vref_sel sky130_fd_sc_hd__buf_2
Xoutput12 net12 VGND VGND VPWR VPWR dac[3] sky130_fd_sc_hd__buf_2
X_643_ net51 _098_ net44 VGND VGND VPWR VPWR adc_data_out\[5\] sky130_fd_sc_hd__dfrtp_1
X_574_ clknet_3_6__leaf_sys_clk _064_ net62 VGND VGND VPWR VPWR u_spi.miso_buffer\[11\]
+ sky130_fd_sc_hd__dfrtp_1
XTAP_TAPCELL_ROW_26_195 VGND VPWR sky130_fd_sc_hd__tapvpwrvgnd_1
XFILLER_31_137 VPWR VGND VPWR VGND sky130_ef_sc_hd__decap_12
XFILLER_39_237 VGND VGND VPWR VPWR sky130_fd_sc_hd__decap_8
XFILLER_39_204 VPWR VGND VPWR VGND sky130_ef_sc_hd__decap_12
XFILLER_11_3 VGND VGND VPWR VPWR sky130_fd_sc_hd__decap_4
XFILLER_42_22 VGND VGND VPWR VPWR sky130_fd_sc_hd__decap_6
XFILLER_13_148 VGND VGND VPWR VPWR sky130_fd_sc_hd__fill_1
XFILLER_21_181 VPWR VGND VPWR VGND sky130_ef_sc_hd__decap_12
X_290_ u_spi.pay\[6\] VGND VGND VPWR VPWR _142_ sky130_fd_sc_hd__inv_2
XFILLER_3_27 VGND VGND VPWR VPWR sky130_fd_sc_hd__decap_8
X_626_ net47 _081_ net41 VGND VGND VPWR VPWR u_controller.counter_reg\[0\] sky130_fd_sc_hd__dfrtp_1
X_488_ u_controller.counter_reg\[9\] net37 _150_ u_controller.counter_reg\[8\] VGND
+ VGND VPWR VPWR _089_ sky130_fd_sc_hd__a22o_1
X_557_ clknet_3_4__leaf_sys_clk _047_ net57 VGND VGND VPWR VPWR bit_clk_sel sky130_fd_sc_hd__dfrtp_1
XFILLER_35_251 VGND VGND VPWR VPWR sky130_fd_sc_hd__fill_1
XTAP_TAPCELL_ROW_5_111 VGND VPWR sky130_fd_sc_hd__tapvpwrvgnd_1
XTAP_TAPCELL_ROW_28_202 VGND VPWR sky130_fd_sc_hd__tapvpwrvgnd_1
X_342_ clk_cnt\[1\] clk_cnt\[0\] VGND VGND VPWR VPWR _174_ sky130_fd_sc_hd__nand2_1
X_411_ net95 net32 _212_ _214_ VGND VGND VPWR VPWR _055_ sky130_fd_sc_hd__o22a_1
XFILLER_5_100 VPWR VGND VPWR VGND sky130_ef_sc_hd__decap_12
XTAP_TAPCELL_ROW_11_135 VGND VPWR sky130_fd_sc_hd__tapvpwrvgnd_1
XFILLER_17_251 VGND VGND VPWR VPWR sky130_fd_sc_hd__fill_1
X_609_ clknet_3_4__leaf_sys_clk net67 net58 VGND VGND VPWR VPWR clk_cnt\[29\] sky130_fd_sc_hd__dfrtp_1
XTAP_TAPCELL_ROW_42_260 VGND VPWR sky130_fd_sc_hd__tapvpwrvgnd_1
XTAP_TAPCELL_ROW_34_227 VGND VPWR sky130_fd_sc_hd__tapvpwrvgnd_1
XFILLER_23_210 VGND VGND VPWR VPWR sky130_fd_sc_hd__decap_8
XFILLER_23_57 VGND VGND VPWR VPWR sky130_fd_sc_hd__decap_6
XFILLER_9_48 VGND VGND VPWR VPWR sky130_fd_sc_hd__decap_8
XFILLER_9_15 VPWR VGND VPWR VGND sky130_ef_sc_hd__decap_12
X_325_ bit_start bit_auto net21 net93 VGND VGND VPWR VPWR _000_ sky130_fd_sc_hd__o31ai_1
XFILLER_14_210 VPWR VGND VPWR VGND sky130_ef_sc_hd__decap_12
XTAP_TAPCELL_ROW_0_93 VGND VPWR sky130_fd_sc_hd__tapvpwrvgnd_1
Xclkload0 clknet_3_0__leaf_sys_clk VGND VGND VPWR VPWR clkload0/Y sky130_fd_sc_hd__inv_6
X_308_ adc_data_out\[1\] net118 net34 VGND VGND VPWR VPWR _038_ sky130_fd_sc_hd__mux2_1
XFILLER_41_3 VPWR VGND VPWR VGND sky130_ef_sc_hd__decap_12
XFILLER_4_209 VPWR VGND VPWR VGND sky130_ef_sc_hd__decap_12
Xhold23 u_spi.data_reg\[2\] VGND VGND VPWR VPWR net111 sky130_fd_sc_hd__dlygate4sd3_1
Xhold45 u_spi.state\[1\] VGND VGND VPWR VPWR net133 sky130_fd_sc_hd__dlygate4sd3_1
Xhold12 u_spi.miso_buffer\[7\] VGND VGND VPWR VPWR net100 sky130_fd_sc_hd__dlygate4sd3_1
Xhold34 _050_ VGND VGND VPWR VPWR net122 sky130_fd_sc_hd__dlygate4sd3_1
X_590_ clknet_3_5__leaf_sys_clk net86 net60 VGND VGND VPWR VPWR clk_cnt\[10\] sky130_fd_sc_hd__dfrtp_1
XFILLER_10_80 VGND VGND VPWR VPWR sky130_fd_sc_hd__decap_4
XFILLER_19_154 VPWR VGND VPWR VGND sky130_ef_sc_hd__decap_12
XFILLER_25_113 VGND VGND VPWR VPWR sky130_fd_sc_hd__fill_2
XFILLER_40_105 VGND VGND VPWR VPWR sky130_fd_sc_hd__decap_3
Xoutput13 net13 VGND VGND VPWR VPWR dac[4] sky130_fd_sc_hd__buf_2
X_642_ net51 _097_ net42 VGND VGND VPWR VPWR adc_data_out\[4\] sky130_fd_sc_hd__dfrtp_1
XPHY_EDGE_ROW_19_Right_19 VGND VGND VPWR VPWR sky130_fd_sc_hd__decap_3
X_573_ clknet_3_6__leaf_sys_clk _063_ net62 VGND VGND VPWR VPWR u_spi.miso_buffer\[10\]
+ sky130_fd_sc_hd__dfrtp_1
XTAP_TAPCELL_ROW_26_196 VGND VPWR sky130_fd_sc_hd__tapvpwrvgnd_1
XFILLER_31_149 VGND VGND VPWR VPWR sky130_fd_sc_hd__decap_8
XFILLER_39_216 VGND VGND VPWR VPWR sky130_fd_sc_hd__decap_8
XPHY_EDGE_ROW_28_Right_28 VGND VGND VPWR VPWR sky130_fd_sc_hd__decap_3
XPHY_EDGE_ROW_37_Right_37 VGND VGND VPWR VPWR sky130_fd_sc_hd__decap_3
XFILLER_26_46 VGND VGND VPWR VPWR sky130_fd_sc_hd__decap_8
XFILLER_21_193 VGND VGND VPWR VPWR sky130_fd_sc_hd__decap_4
X_625_ net50 _080_ net43 VGND VGND VPWR VPWR u_controller.dac_reg\[11\] sky130_fd_sc_hd__dfrtp_1
X_556_ net2 VGND VGND VPWR VPWR _281_ sky130_fd_sc_hd__buf_1
X_487_ u_controller.counter_reg\[8\] net38 _150_ u_controller.counter_reg\[7\] VGND
+ VGND VPWR VPWR _088_ sky130_fd_sc_hd__a22o_1
Xclkbuf_3_6__f_sys_clk clknet_0_sys_clk VGND VGND VPWR VPWR clknet_3_6__leaf_sys_clk
+ sky130_fd_sc_hd__clkbuf_16
XFILLER_12_15 VPWR VGND VPWR VGND sky130_ef_sc_hd__decap_12
XTAP_TAPCELL_ROW_5_112 VGND VPWR sky130_fd_sc_hd__tapvpwrvgnd_1
XTAP_TAPCELL_ROW_28_203 VGND VPWR sky130_fd_sc_hd__tapvpwrvgnd_1
XFILLER_41_211 VPWR VGND VPWR VGND sky130_ef_sc_hd__decap_12
X_341_ clk_cnt\[1\] clk_cnt\[0\] VGND VGND VPWR VPWR _173_ sky130_fd_sc_hd__or2_1
X_410_ net27 _213_ VGND VGND VPWR VPWR _214_ sky130_fd_sc_hd__and2_1
XFILLER_26_241 VGND VGND VPWR VPWR sky130_fd_sc_hd__decap_8
XFILLER_5_167 VGND VGND VPWR VPWR sky130_fd_sc_hd__fill_1
XTAP_TAPCELL_ROW_11_136 VGND VPWR sky130_fd_sc_hd__tapvpwrvgnd_1
X_608_ clknet_3_5__leaf_sys_clk net68 net58 VGND VGND VPWR VPWR clk_cnt\[28\] sky130_fd_sc_hd__dfrtp_1
XTAP_TAPCELL_ROW_34_228 VGND VPWR sky130_fd_sc_hd__tapvpwrvgnd_1
XTAP_TAPCELL_ROW_42_261 VGND VPWR sky130_fd_sc_hd__tapvpwrvgnd_1
X_539_ net106 _271_ _127_ VGND VGND VPWR VPWR _125_ sky130_fd_sc_hd__a21o_1
XFILLER_0_29 VPWR VGND VPWR VGND sky130_ef_sc_hd__decap_12
XFILLER_14_222 VGND VGND VPWR VPWR sky130_fd_sc_hd__decap_6
XFILLER_9_27 VGND VGND VPWR VPWR sky130_fd_sc_hd__fill_1
X_324_ bit_start _157_ _158_ net28 u_spi.pay\[1\] VGND VGND VPWR VPWR _034_ sky130_fd_sc_hd__a32o_1
XPHY_EDGE_ROW_24_Left_67 VGND VGND VPWR VPWR sky130_fd_sc_hd__decap_3
XFILLER_20_225 VGND VGND VPWR VPWR sky130_fd_sc_hd__decap_4
Xclkload1 clknet_3_1__leaf_sys_clk VGND VGND VPWR VPWR clkload1/Y sky130_fd_sc_hd__inv_8
XFILLER_1_3 VPWR VGND VPWR VGND sky130_ef_sc_hd__decap_12
X_307_ adc_data_out\[0\] net124 net34 VGND VGND VPWR VPWR _035_ sky130_fd_sc_hd__mux2_1
XFILLER_34_3 VGND VGND VPWR VPWR sky130_fd_sc_hd__fill_2
XFILLER_37_111 VGND VGND VPWR VPWR sky130_fd_sc_hd__fill_1
XFILLER_20_15 VPWR VGND VPWR VGND sky130_ef_sc_hd__decap_12
Xhold46 eoc_flag VGND VGND VPWR VPWR net134 sky130_fd_sc_hd__dlygate4sd3_1
Xhold35 u_spi.data_reg\[3\] VGND VGND VPWR VPWR net123 sky130_fd_sc_hd__dlygate4sd3_1